
VirtualMemory physical capacity: 8589934592 num_ppages: 2097152
VirtualMemory page size: 4096 log2_page_size: 12
VirtualMemory initalizing ppage free list ... done
VirtualMemory shuffling ppage free list ... done


*** ChampSim Multicore Out-of-Order Simulator ***

Warmup Instructions: 50000000
Simulation Instructions: 50000000
Number of CPUs: 1
LLC sets: 2048
LLC ways: 16
Off-chip DRAM Size: 4096 MB Channels: 1 Width: 64-bit Data Rate: 3200 MT/s

CPU 0 runs ipc1_public/client_005.champsimtrace.xz
CPU 0 Bimodal branch predictor
Basic BTB sets: 1024 ways: 8 indirect buffer size: 4096 RAS size: 64
LHT KB: 31.56
SCC KB: 1.56
Total KB: 33.12
Heartbeat CPU 0 instructions: 10000002 cycles: 2543254 heartbeat IPC: 3.93197 cumulative IPC: 3.93197 (Simulation time: 0 hr 4 min 40 sec) 
Heartbeat CPU 0 instructions: 20000000 cycles: 5067779 heartbeat IPC: 3.96114 cumulative IPC: 3.9465 (Simulation time: 0 hr 9 min 31 sec) 
Heartbeat CPU 0 instructions: 30000002 cycles: 7569470 heartbeat IPC: 3.9973 cumulative IPC: 3.96329 (Simulation time: 0 hr 15 min 24 sec) 
Heartbeat CPU 0 instructions: 40000000 cycles: 10071827 heartbeat IPC: 3.99623 cumulative IPC: 3.97147 (Simulation time: 0 hr 21 min 6 sec) 
Heartbeat CPU 0 instructions: 50000001 cycles: 12576194 heartbeat IPC: 3.99303 cumulative IPC: 3.97577 (Simulation time: 0 hr 26 min 34 sec) 

Warmup complete CPU 0 instructions: 50000001 cycles: 12576194 (Simulation time: 0 hr 26 min 34 sec) 

Heartbeat CPU 0 instructions: 60000002 cycles: 19265642 heartbeat IPC: 1.49489 cumulative IPC: 1.49489 (Simulation time: 0 hr 31 min 51 sec) 
Heartbeat CPU 0 instructions: 70000003 cycles: 26086333 heartbeat IPC: 1.46613 cumulative IPC: 1.48037 (Simulation time: 0 hr 39 min 22 sec) 
Heartbeat CPU 0 instructions: 80000003 cycles: 32267023 heartbeat IPC: 1.61794 cumulative IPC: 1.52355 (Simulation time: 0 hr 48 min 42 sec) 
Heartbeat CPU 0 instructions: 90000003 cycles: 40563377 heartbeat IPC: 1.20535 cumulative IPC: 1.42923 (Simulation time: 1 hr 0 min 53 sec) 
Heartbeat CPU 0 instructions: 100000004 cycles: 47511229 heartbeat IPC: 1.43929 cumulative IPC: 1.43123 (Simulation time: 1 hr 10 min 7 sec) 
Finished CPU 0 instructions: 50000003 cycles: 34935035 cumulative IPC: 1.43123 (Simulation time: 1 hr 10 min 7 sec) 

ChampSim completed all CPUs

Region of Interest Statistics

CPU 0 cumulative IPC: 1.43123 instructions: 50000003 cycles: 34935035
L1D TOTAL     ACCESS:   14116456  HIT:   13729206  MISS:     387250
L1D LOAD      ACCESS:    7262030  HIT:    7070387  MISS:     191643
L1D RFO       ACCESS:    6854426  HIT:    6658819  MISS:     195607
L1D PREFETCH  ACCESS:          0  HIT:          0  MISS:          0
L1D WRITEBACK ACCESS:          0  HIT:          0  MISS:          0
L1D PREFETCH  REQUESTED:          0  ISSUED:          0  USEFUL:          0  USELESS:          0
L1D AVERAGE MISS LATENCY: 117.698 cycles
L1I TOTAL     ACCESS:   20034619  HIT:   18391256  MISS:    1643363
L1I LOAD      ACCESS:    5623607  HIT:    5532801  MISS:      90806
L1I RFO       ACCESS:          0  HIT:          0  MISS:          0
L1I PREFETCH  ACCESS:   14411012  HIT:   12858455  MISS:    1552557
L1I WRITEBACK ACCESS:          0  HIT:          0  MISS:          0
L1I PREFETCH  REQUESTED:   17014468  ISSUED:   17014238  USEFUL:    1092560  USELESS:     459946
L1I AVERAGE MISS LATENCY: 11.2901 cycles
L2C TOTAL     ACCESS:    2271257  HIT:    1866383  MISS:     404874
L2C LOAD      ACCESS:     237735  HIT:     119895  MISS:     117840
L2C RFO       ACCESS:     195606  HIT:      27362  MISS:     168244
L2C PREFETCH  ACCESS:    1597270  HIT:    1481369  MISS:     115901
L2C WRITEBACK ACCESS:     240646  HIT:     237757  MISS:       2889
L2C PREFETCH  REQUESTED:          0  ISSUED:          0  USEFUL:      61000  USELESS:      53744
L2C AVERAGE MISS LATENCY: 130.13 cycles
LLC TOTAL     ACCESS:     603379  HIT:     346571  MISS:     256808
LLC LOAD      ACCESS:     117840  HIT:      49153  MISS:      68687
LLC RFO       ACCESS:     168244  HIT:      12365  MISS:     155879
LLC PREFETCH  ACCESS:     115901  HIT:      84365  MISS:      31536
LLC WRITEBACK ACCESS:     201394  HIT:     200688  MISS:        706
LLC PREFETCH  REQUESTED:          0  ISSUED:          0  USEFUL:      17306  USELESS:      11574
LLC AVERAGE MISS LATENCY: 187.937 cycles

DRAM Statistics
 CHANNEL 0
 RQ ROW_BUFFER_HIT:      77903  ROW_BUFFER_MISS:     178188
 DBUS_CONGESTED:     204735
 WQ ROW_BUFFER_HIT:      59112  ROW_BUFFER_MISS:     122513  FULL:          0

 AVG_CONGESTED_CYCLE: 6

CPU 0 Branch Prediction Accuracy: 94.0965% MPKI: 10.7955 Average ROB Occupancy at Mispredict: 146.108
Branch type MPKI
BRANCH_DIRECT_JUMP: 0.07714
BRANCH_INDIRECT: 0.57548
BRANCH_CONDITIONAL: 9.0865
BRANCH_DIRECT_CALL: 0.12842
BRANCH_INDIRECT_CALL: 0.57018
BRANCH_RETURN: 0.35782

