
VirtualMemory physical capacity: 8589934592 num_ppages: 2097152
VirtualMemory page size: 4096 log2_page_size: 12
VirtualMemory initalizing ppage free list ... done
VirtualMemory shuffling ppage free list ... done


*** ChampSim Multicore Out-of-Order Simulator ***

Warmup Instructions: 50000000
Simulation Instructions: 50000000
Number of CPUs: 1
LLC sets: 2048
LLC ways: 16
Off-chip DRAM Size: 4096 MB Channels: 1 Width: 64-bit Data Rate: 3200 MT/s

CPU 0 runs ipc1_public/client_003.champsimtrace.xz
CPU 0 Bimodal branch predictor
Basic BTB sets: 1024 ways: 8 indirect buffer size: 4096 RAS size: 64
Heartbeat CPU 0 instructions: 10000001 cycles: 2559934 heartbeat IPC: 3.90635 cumulative IPC: 3.90635 (Simulation time: 0 hr 13 min 14 sec) 
Heartbeat CPU 0 instructions: 20000001 cycles: 5160654 heartbeat IPC: 3.84509 cumulative IPC: 3.87548 (Simulation time: 0 hr 27 min 8 sec) 
Heartbeat CPU 0 instructions: 30000000 cycles: 7710054 heartbeat IPC: 3.92249 cumulative IPC: 3.89102 (Simulation time: 0 hr 40 min 37 sec) 
Heartbeat CPU 0 instructions: 40000000 cycles: 10248067 heartbeat IPC: 3.94009 cumulative IPC: 3.90318 (Simulation time: 0 hr 49 min 21 sec) 
Heartbeat CPU 0 instructions: 50000002 cycles: 12782829 heartbeat IPC: 3.94514 cumulative IPC: 3.9115 (Simulation time: 0 hr 56 min 31 sec) 

Warmup complete CPU 0 instructions: 50000002 cycles: 12782829 (Simulation time: 0 hr 56 min 31 sec) 

Heartbeat CPU 0 instructions: 60000000 cycles: 18399244 heartbeat IPC: 1.78049 cumulative IPC: 1.78049 (Simulation time: 1 hr 3 min 38 sec) 
Heartbeat CPU 0 instructions: 70000001 cycles: 23805926 heartbeat IPC: 1.84956 cumulative IPC: 1.81437 (Simulation time: 1 hr 10 min 52 sec) 
Heartbeat CPU 0 instructions: 80000003 cycles: 30221802 heartbeat IPC: 1.55863 cumulative IPC: 1.72028 (Simulation time: 1 hr 15 min 26 sec) 
Heartbeat CPU 0 instructions: 90000000 cycles: 44616491 heartbeat IPC: 0.6947 cumulative IPC: 1.25653 (Simulation time: 1 hr 28 min 56 sec) 
Heartbeat CPU 0 instructions: 100000000 cycles: 55979708 heartbeat IPC: 0.880032 cumulative IPC: 1.15749 (Simulation time: 1 hr 39 min 28 sec) 
Finished CPU 0 instructions: 50000003 cycles: 43196880 cumulative IPC: 1.15749 (Simulation time: 1 hr 39 min 28 sec) 

ChampSim completed all CPUs

Region of Interest Statistics

CPU 0 cumulative IPC: 1.15749 instructions: 50000003 cycles: 43196880
L1D TOTAL     ACCESS:   12810091  HIT:   12402749  MISS:     407342
L1D LOAD      ACCESS:    6546972  HIT:    6378818  MISS:     168154
L1D RFO       ACCESS:    6263119  HIT:    6023931  MISS:     239188
L1D PREFETCH  ACCESS:          0  HIT:          0  MISS:          0
L1D WRITEBACK ACCESS:          0  HIT:          0  MISS:          0
L1D PREFETCH  REQUESTED:          0  ISSUED:          0  USEFUL:          0  USELESS:          0
L1D AVERAGE MISS LATENCY: 174.098 cycles
L1I TOTAL     ACCESS:    8856793  HIT:    6382344  MISS:    2474449
L1I LOAD      ACCESS:    3996755  HIT:    3592382  MISS:     404373
L1I RFO       ACCESS:          0  HIT:          0  MISS:          0
L1I PREFETCH  ACCESS:    4860038  HIT:    2789962  MISS:    2070076
L1I WRITEBACK ACCESS:          0  HIT:          0  MISS:          0
L1I PREFETCH  REQUESTED:    5291627  ISSUED:    5291627  USEFUL:          0  USELESS:          0
L1I AVERAGE MISS LATENCY: 7.95792 cycles
L2C TOTAL     ACCESS:    3143242  HIT:    2763852  MISS:     379390
L2C LOAD      ACCESS:     537154  HIT:     406233  MISS:     130921
L2C RFO       ACCESS:     239188  HIT:      25871  MISS:     213317
L2C PREFETCH  ACCESS:    2105449  HIT:    2072175  MISS:      33274
L2C WRITEBACK ACCESS:     261451  HIT:     259573  MISS:       1878
L2C PREFETCH  REQUESTED:          0  ISSUED:          0  USEFUL:      29612  USELESS:       3555
L2C AVERAGE MISS LATENCY: 191.048 cycles
LLC TOTAL     ACCESS:     600707  HIT:     337959  MISS:     262748
LLC LOAD      ACCESS:     130921  HIT:      46364  MISS:      84557
LLC RFO       ACCESS:     213317  HIT:      40917  MISS:     172400
LLC PREFETCH  ACCESS:      33274  HIT:      27733  MISS:       5541
LLC WRITEBACK ACCESS:     223195  HIT:     222945  MISS:        250
LLC PREFETCH  REQUESTED:          0  ISSUED:          0  USEFUL:       2614  USELESS:       2033
LLC AVERAGE MISS LATENCY: 260.054 cycles

DRAM Statistics
 CHANNEL 0
 RQ ROW_BUFFER_HIT:      80187  ROW_BUFFER_MISS:     182308
 DBUS_CONGESTED:     234335
 WQ ROW_BUFFER_HIT:      72813  ROW_BUFFER_MISS:     101875  FULL:          0

 AVG_CONGESTED_CYCLE: 6

CPU 0 Branch Prediction Accuracy: 96.415% MPKI: 7.15642 Average ROB Occupancy at Mispredict: 128.804
Branch type MPKI
BRANCH_DIRECT_JUMP: 0.04628
BRANCH_INDIRECT: 0.50808
BRANCH_CONDITIONAL: 6.0346
BRANCH_DIRECT_CALL: 0.10796
BRANCH_INDIRECT_CALL: 0.33032
BRANCH_RETURN: 0.12918

