
VirtualMemory physical capacity: 8589934592 num_ppages: 2097152
VirtualMemory page size: 4096 log2_page_size: 12
VirtualMemory initalizing ppage free list ... done
VirtualMemory shuffling ppage free list ... done


*** ChampSim Multicore Out-of-Order Simulator ***

Warmup Instructions: 50000000
Simulation Instructions: 50000000
Number of CPUs: 1
LLC sets: 2048
LLC ways: 16
Off-chip DRAM Size: 4096 MB Channels: 1 Width: 64-bit Data Rate: 3200 MT/s

CPU 0 runs ipc1_public/client_006.champsimtrace.xz
CPU 0 Bimodal branch predictor
Basic BTB sets: 1024 ways: 8 indirect buffer size: 4096 RAS size: 64
Heartbeat CPU 0 instructions: 10000002 cycles: 3611377 heartbeat IPC: 2.76903 cumulative IPC: 2.76903 (Simulation time: 0 hr 12 min 50 sec) 
Heartbeat CPU 0 instructions: 20000000 cycles: 7015596 heartbeat IPC: 2.93753 cumulative IPC: 2.85079 (Simulation time: 0 hr 25 min 21 sec) 
Heartbeat CPU 0 instructions: 30000002 cycles: 9586269 heartbeat IPC: 3.89003 cumulative IPC: 3.12948 (Simulation time: 0 hr 31 min 20 sec) 
Heartbeat CPU 0 instructions: 40000001 cycles: 12391610 heartbeat IPC: 3.56463 cumulative IPC: 3.22799 (Simulation time: 0 hr 39 min 41 sec) 
Heartbeat CPU 0 instructions: 50000001 cycles: 15625676 heartbeat IPC: 3.09208 cumulative IPC: 3.19986 (Simulation time: 0 hr 52 min 18 sec) 

Warmup complete CPU 0 instructions: 50000001 cycles: 15625676 (Simulation time: 0 hr 52 min 18 sec) 

Heartbeat CPU 0 instructions: 60000003 cycles: 22792549 heartbeat IPC: 1.39531 cumulative IPC: 1.39531 (Simulation time: 1 hr 1 min 56 sec) 
Heartbeat CPU 0 instructions: 70000004 cycles: 31205686 heartbeat IPC: 1.18862 cumulative IPC: 1.2837 (Simulation time: 1 hr 10 min 43 sec) 
Heartbeat CPU 0 instructions: 80000000 cycles: 38410662 heartbeat IPC: 1.38793 cumulative IPC: 1.31666 (Simulation time: 1 hr 21 min 33 sec) 
Heartbeat CPU 0 instructions: 90000002 cycles: 45942392 heartbeat IPC: 1.32772 cumulative IPC: 1.3194 (Simulation time: 1 hr 26 min 58 sec) 
Heartbeat CPU 0 instructions: 100000004 cycles: 53081159 heartbeat IPC: 1.4008 cumulative IPC: 1.33492 (Simulation time: 1 hr 35 min 6 sec) 
Finished CPU 0 instructions: 50000003 cycles: 37455483 cumulative IPC: 1.33492 (Simulation time: 1 hr 35 min 6 sec) 

ChampSim completed all CPUs

Region of Interest Statistics

CPU 0 cumulative IPC: 1.33492 instructions: 50000003 cycles: 37455483
L1D TOTAL     ACCESS:   11158159  HIT:   10655588  MISS:     502571
L1D LOAD      ACCESS:    6774668  HIT:    6311886  MISS:     462782
L1D RFO       ACCESS:    4383491  HIT:    4343702  MISS:      39789
L1D PREFETCH  ACCESS:          0  HIT:          0  MISS:          0
L1D WRITEBACK ACCESS:          0  HIT:          0  MISS:          0
L1D PREFETCH  REQUESTED:          0  ISSUED:          0  USEFUL:          0  USELESS:          0
L1D AVERAGE MISS LATENCY: 110.18 cycles
L1I TOTAL     ACCESS:    5156743  HIT:    4252509  MISS:     904234
L1I LOAD      ACCESS:    3292363  HIT:    3153179  MISS:     139184
L1I RFO       ACCESS:          0  HIT:          0  MISS:          0
L1I PREFETCH  ACCESS:    1864380  HIT:    1099330  MISS:     765050
L1I WRITEBACK ACCESS:          0  HIT:          0  MISS:          0
L1I PREFETCH  REQUESTED:    2117368  ISSUED:    2117368  USEFUL:     579604  USELESS:     185480
L1I AVERAGE MISS LATENCY: 13.1846 cycles
L2C TOTAL     ACCESS:    1562809  HIT:    1097464  MISS:     465345
L2C LOAD      ACCESS:     559265  HIT:     163283  MISS:     395982
L2C RFO       ACCESS:      39789  HIT:       6931  MISS:      32858
L2C PREFETCH  ACCESS:     807751  HIT:     772205  MISS:      35546
L2C WRITEBACK ACCESS:     156004  HIT:     155045  MISS:        959
L2C PREFETCH  REQUESTED:          0  ISSUED:          0  USEFUL:      24871  USELESS:      10998
L2C AVERAGE MISS LATENCY: 126.209 cycles
LLC TOTAL     ACCESS:     596809  HIT:     332357  MISS:     264452
LLC LOAD      ACCESS:     395982  HIT:     173102  MISS:     222880
LLC RFO       ACCESS:      32858  HIT:       3987  MISS:      28871
LLC PREFETCH  ACCESS:      35546  HIT:      23085  MISS:      12461
LLC WRITEBACK ACCESS:     132423  HIT:     132183  MISS:        240
LLC PREFETCH  REQUESTED:          0  ISSUED:          0  USEFUL:       6121  USELESS:       7579
LLC AVERAGE MISS LATENCY: 202.763 cycles

DRAM Statistics
 CHANNEL 0
 RQ ROW_BUFFER_HIT:      53687  ROW_BUFFER_MISS:     210505
 DBUS_CONGESTED:     138695
 WQ ROW_BUFFER_HIT:      21608  ROW_BUFFER_MISS:      90386  FULL:          0

 AVG_CONGESTED_CYCLE: 6

CPU 0 Branch Prediction Accuracy: 91.1399% MPKI: 15.1713 Average ROB Occupancy at Mispredict: 141.599
Branch type MPKI
BRANCH_DIRECT_JUMP: 0.00506
BRANCH_INDIRECT: 0.19698
BRANCH_CONDITIONAL: 14.6061
BRANCH_DIRECT_CALL: 0.00442
BRANCH_INDIRECT_CALL: 0.29744
BRANCH_RETURN: 0.06126

