
VirtualMemory physical capacity: 8589934592 num_ppages: 2097152
VirtualMemory page size: 4096 log2_page_size: 12
VirtualMemory initalizing ppage free list ... done
VirtualMemory shuffling ppage free list ... done


*** ChampSim Multicore Out-of-Order Simulator ***

Warmup Instructions: 50000000
Simulation Instructions: 50000000
Number of CPUs: 1
LLC sets: 2048
LLC ways: 16
Off-chip DRAM Size: 4096 MB Channels: 1 Width: 64-bit Data Rate: 3200 MT/s

CPU 0 runs ipc1_public/client_008.champsimtrace.xz
CPU 0 Bimodal branch predictor
Basic BTB sets: 1024 ways: 8 indirect buffer size: 4096 RAS size: 64
LHT KB: 31.56
SCC KB: 1.56
Total KB: 33.12
Heartbeat CPU 0 instructions: 10000004 cycles: 2947111 heartbeat IPC: 3.39315 cumulative IPC: 3.39315 (Simulation time: 0 hr 19 min 55 sec) 
Heartbeat CPU 0 instructions: 20000004 cycles: 5929759 heartbeat IPC: 3.35273 cumulative IPC: 3.37282 (Simulation time: 0 hr 41 min 10 sec) 
Heartbeat CPU 0 instructions: 30000004 cycles: 8894152 heartbeat IPC: 3.37337 cumulative IPC: 3.373 (Simulation time: 1 hr 0 min 50 sec) 
Heartbeat CPU 0 instructions: 40000001 cycles: 11905442 heartbeat IPC: 3.32083 cumulative IPC: 3.35981 (Simulation time: 1 hr 17 min 30 sec) 
Heartbeat CPU 0 instructions: 50000001 cycles: 14906000 heartbeat IPC: 3.33271 cumulative IPC: 3.35435 (Simulation time: 1 hr 25 min 19 sec) 

Warmup complete CPU 0 instructions: 50000001 cycles: 14906000 (Simulation time: 1 hr 25 min 19 sec) 

Heartbeat CPU 0 instructions: 60000003 cycles: 21718387 heartbeat IPC: 1.46791 cumulative IPC: 1.46791 (Simulation time: 1 hr 39 min 51 sec) 
Heartbeat CPU 0 instructions: 70000001 cycles: 28107166 heartbeat IPC: 1.56524 cumulative IPC: 1.51502 (Simulation time: 1 hr 51 min 1 sec) 
Heartbeat CPU 0 instructions: 80000000 cycles: 34823020 heartbeat IPC: 1.48901 cumulative IPC: 1.50625 (Simulation time: 2 hr 1 min 6 sec) 
Heartbeat CPU 0 instructions: 90000000 cycles: 40701610 heartbeat IPC: 1.70109 cumulative IPC: 1.55065 (Simulation time: 2 hr 12 min 42 sec) 
Heartbeat CPU 0 instructions: 100000001 cycles: 47735552 heartbeat IPC: 1.42168 cumulative IPC: 1.52302 (Simulation time: 2 hr 19 min 7 sec) 
Finished CPU 0 instructions: 50000000 cycles: 32829552 cumulative IPC: 1.52302 (Simulation time: 2 hr 19 min 7 sec) 

ChampSim completed all CPUs

Region of Interest Statistics

CPU 0 cumulative IPC: 1.52302 instructions: 50000000 cycles: 32829552
L1D TOTAL     ACCESS:   13949783  HIT:   13080682  MISS:     869101
L1D LOAD      ACCESS:    9010208  HIT:    8258360  MISS:     751848
L1D RFO       ACCESS:    4939575  HIT:    4822322  MISS:     117253
L1D PREFETCH  ACCESS:          0  HIT:          0  MISS:          0
L1D WRITEBACK ACCESS:          0  HIT:          0  MISS:          0
L1D PREFETCH  REQUESTED:          0  ISSUED:          0  USEFUL:          0  USELESS:          0
L1D AVERAGE MISS LATENCY: 39.9853 cycles
L1I TOTAL     ACCESS:   15097926  HIT:   11677986  MISS:    3419940
L1I LOAD      ACCESS:    3391666  HIT:    2723177  MISS:     668489
L1I RFO       ACCESS:          0  HIT:          0  MISS:          0
L1I PREFETCH  ACCESS:   11706260  HIT:    8954809  MISS:    2751451
L1I WRITEBACK ACCESS:          0  HIT:          0  MISS:          0
L1I PREFETCH  REQUESTED:   13637381  ISSUED:   13637381  USEFUL:          0  USELESS:          0
L1I AVERAGE MISS LATENCY: 7.76031 cycles
L2C TOTAL     ACCESS:    4457052  HIT:    4092316  MISS:     364736
L2C LOAD      ACCESS:    1328967  HIT:    1125748  MISS:     203219
L2C RFO       ACCESS:     117252  HIT:      14466  MISS:     102786
L2C PREFETCH  ACCESS:    2842819  HIT:    2784825  MISS:      57994
L2C WRITEBACK ACCESS:     168014  HIT:     167277  MISS:        737
L2C PREFETCH  REQUESTED:          0  ISSUED:          0  USEFUL:      39546  USELESS:      19115
L2C AVERAGE MISS LATENCY: 91.4076 cycles
LLC TOTAL     ACCESS:     494912  HIT:     338193  MISS:     156719
LLC LOAD      ACCESS:     203219  HIT:     157528  MISS:      45691
LLC RFO       ACCESS:     102786  HIT:       9015  MISS:      93771
LLC PREFETCH  ACCESS:      57994  HIT:      41000  MISS:      16994
LLC WRITEBACK ACCESS:     130913  HIT:     130650  MISS:        263
LLC PREFETCH  REQUESTED:          0  ISSUED:          0  USEFUL:       6322  USELESS:      11539
LLC AVERAGE MISS LATENCY: 187.18 cycles

DRAM Statistics
 CHANNEL 0
 RQ ROW_BUFFER_HIT:      39151  ROW_BUFFER_MISS:     117287
 DBUS_CONGESTED:      86366
 WQ ROW_BUFFER_HIT:      25117  ROW_BUFFER_MISS:      61537  FULL:          0

 AVG_CONGESTED_CYCLE: 6

CPU 0 Branch Prediction Accuracy: 93.4999% MPKI: 15.1715 Average ROB Occupancy at Mispredict: 126.137
Branch type MPKI
BRANCH_DIRECT_JUMP: 0.02592
BRANCH_INDIRECT: 1.26656
BRANCH_CONDITIONAL: 11.0842
BRANCH_DIRECT_CALL: 0.0467
BRANCH_INDIRECT_CALL: 2.73406
BRANCH_RETURN: 0.014

