
VirtualMemory physical capacity: 8589934592 num_ppages: 2097152
VirtualMemory page size: 4096 log2_page_size: 12
VirtualMemory initalizing ppage free list ... done
VirtualMemory shuffling ppage free list ... done


*** ChampSim Multicore Out-of-Order Simulator ***

Warmup Instructions: 50000000
Simulation Instructions: 50000000
Number of CPUs: 1
LLC sets: 2048
LLC ways: 16
Off-chip DRAM Size: 4096 MB Channels: 1 Width: 64-bit Data Rate: 3200 MT/s

CPU 0 runs ipc1_public/client_007.champsimtrace.xz
CPU 0 Bimodal branch predictor
Basic BTB sets: 1024 ways: 8 indirect buffer size: 4096 RAS size: 64
Heartbeat CPU 0 instructions: 10000000 cycles: 2715529 heartbeat IPC: 3.68252 cumulative IPC: 3.68252 (Simulation time: 0 hr 13 min 0 sec) 
Heartbeat CPU 0 instructions: 20000002 cycles: 5462416 heartbeat IPC: 3.64049 cumulative IPC: 3.66138 (Simulation time: 0 hr 26 min 18 sec) 
Heartbeat CPU 0 instructions: 30000002 cycles: 8835264 heartbeat IPC: 2.96485 cumulative IPC: 3.39548 (Simulation time: 0 hr 40 min 53 sec) 
Heartbeat CPU 0 instructions: 40000001 cycles: 12174735 heartbeat IPC: 2.99449 cumulative IPC: 3.28549 (Simulation time: 0 hr 59 min 51 sec) 
Heartbeat CPU 0 instructions: 50000000 cycles: 14904742 heartbeat IPC: 3.66299 cumulative IPC: 3.35464 (Simulation time: 1 hr 12 min 43 sec) 

Warmup complete CPU 0 instructions: 50000005 cycles: 14904743 (Simulation time: 1 hr 12 min 43 sec) 

Heartbeat CPU 0 instructions: 60000000 cycles: 20277899 heartbeat IPC: 1.8611 cumulative IPC: 1.8611 (Simulation time: 1 hr 30 min 40 sec) 
Heartbeat CPU 0 instructions: 70000002 cycles: 27346163 heartbeat IPC: 1.41477 cumulative IPC: 1.60753 (Simulation time: 1 hr 47 min 4 sec) 
Heartbeat CPU 0 instructions: 80000001 cycles: 32432499 heartbeat IPC: 1.96605 cumulative IPC: 1.71157 (Simulation time: 1 hr 56 min 10 sec) 
Heartbeat CPU 0 instructions: 90000002 cycles: 39225753 heartbeat IPC: 1.47205 cumulative IPC: 1.64467 (Simulation time: 2 hr 4 min 49 sec) 
Heartbeat CPU 0 instructions: 100000001 cycles: 47152662 heartbeat IPC: 1.26153 cumulative IPC: 1.55049 (Simulation time: 2 hr 8 min 39 sec) 
Finished CPU 0 instructions: 50000001 cycles: 32247920 cumulative IPC: 1.55049 (Simulation time: 2 hr 8 min 39 sec) 

ChampSim completed all CPUs

Region of Interest Statistics

CPU 0 cumulative IPC: 1.55049 instructions: 50000001 cycles: 32247920
L1D TOTAL     ACCESS:   14541655  HIT:   13975578  MISS:     566077
L1D LOAD      ACCESS:    9278317  HIT:    8788093  MISS:     490224
L1D RFO       ACCESS:    5263338  HIT:    5187485  MISS:      75853
L1D PREFETCH  ACCESS:          0  HIT:          0  MISS:          0
L1D WRITEBACK ACCESS:          0  HIT:          0  MISS:          0
L1D PREFETCH  REQUESTED:          0  ISSUED:          0  USEFUL:          0  USELESS:          0
L1D AVERAGE MISS LATENCY: 48.8527 cycles
L1I TOTAL     ACCESS:    2251775  HIT:    1531439  MISS:     720336
L1I LOAD      ACCESS:    2251775  HIT:    1531439  MISS:     720336
L1I RFO       ACCESS:          0  HIT:          0  MISS:          0
L1I PREFETCH  ACCESS:          0  HIT:          0  MISS:          0
L1I WRITEBACK ACCESS:          0  HIT:          0  MISS:          0
L1I PREFETCH  REQUESTED:          0  ISSUED:          0  USEFUL:          0  USELESS:          0
L1I AVERAGE MISS LATENCY: 8.0084 cycles
L2C TOTAL     ACCESS:    1518494  HIT:    1341637  MISS:     176857
L2C LOAD      ACCESS:    1210558  HIT:    1081850  MISS:     128708
L2C RFO       ACCESS:      75852  HIT:      28262  MISS:      47590
L2C PREFETCH  ACCESS:          0  HIT:          0  MISS:          0
L2C WRITEBACK ACCESS:     232084  HIT:     231525  MISS:        559
L2C PREFETCH  REQUESTED:          0  ISSUED:          0  USEFUL:          0  USELESS:          0
L2C AVERAGE MISS LATENCY: 142.1 cycles
LLC TOTAL     ACCESS:     251137  HIT:     130858  MISS:     120279
LLC LOAD      ACCESS:     128708  HIT:      49881  MISS:      78827
LLC RFO       ACCESS:      47590  HIT:       6238  MISS:      41352
LLC PREFETCH  ACCESS:          0  HIT:          0  MISS:          0
LLC WRITEBACK ACCESS:      74839  HIT:      74739  MISS:        100
LLC PREFETCH  REQUESTED:          0  ISSUED:          0  USEFUL:          0  USELESS:          0
LLC AVERAGE MISS LATENCY: 192.817 cycles

DRAM Statistics
 CHANNEL 0
 RQ ROW_BUFFER_HIT:      22523  ROW_BUFFER_MISS:      97633
 DBUS_CONGESTED:      64709
 WQ ROW_BUFFER_HIT:      12493  ROW_BUFFER_MISS:      45919  FULL:          0

 AVG_CONGESTED_CYCLE: 6

CPU 0 Branch Prediction Accuracy: 93.2168% MPKI: 11.0877 Average ROB Occupancy at Mispredict: 172.908
Branch type MPKI
BRANCH_DIRECT_JUMP: 0.00798
BRANCH_INDIRECT: 0.83128
BRANCH_CONDITIONAL: 8.6641
BRANCH_DIRECT_CALL: 0.01586
BRANCH_INDIRECT_CALL: 1.12364
BRANCH_RETURN: 0.44484

