
VirtualMemory physical capacity: 8589934592 num_ppages: 2097152
VirtualMemory page size: 4096 log2_page_size: 12
VirtualMemory initalizing ppage free list ... done
VirtualMemory shuffling ppage free list ... done


*** ChampSim Multicore Out-of-Order Simulator ***

Warmup Instructions: 50000000
Simulation Instructions: 50000000
Number of CPUs: 1
LLC sets: 2048
LLC ways: 16
Off-chip DRAM Size: 4096 MB Channels: 1 Width: 64-bit Data Rate: 3200 MT/s

CPU 0 runs ipc1_public/client_007.champsimtrace.xz
CPU 0 Bimodal branch predictor
Basic BTB sets: 1024 ways: 8 indirect buffer size: 4096 RAS size: 64
Heartbeat CPU 0 instructions: 10000000 cycles: 2716436 heartbeat IPC: 3.68129 cumulative IPC: 3.68129 (Simulation time: 0 hr 19 min 15 sec) 
Heartbeat CPU 0 instructions: 20000000 cycles: 5460880 heartbeat IPC: 3.64373 cumulative IPC: 3.66241 (Simulation time: 0 hr 41 min 50 sec) 
Heartbeat CPU 0 instructions: 30000002 cycles: 8831276 heartbeat IPC: 2.96701 cumulative IPC: 3.39702 (Simulation time: 1 hr 9 min 21 sec) 
Heartbeat CPU 0 instructions: 40000001 cycles: 12170731 heartbeat IPC: 2.9945 cumulative IPC: 3.28657 (Simulation time: 1 hr 38 min 14 sec) 
Heartbeat CPU 0 instructions: 50000001 cycles: 14899726 heartbeat IPC: 3.66435 cumulative IPC: 3.35577 (Simulation time: 1 hr 56 min 7 sec) 

Warmup complete CPU 0 instructions: 50000001 cycles: 14899726 (Simulation time: 1 hr 56 min 7 sec) 

Heartbeat CPU 0 instructions: 60000000 cycles: 20308431 heartbeat IPC: 1.84887 cumulative IPC: 1.84887 (Simulation time: 2 hr 14 min 22 sec) 
Heartbeat CPU 0 instructions: 70000002 cycles: 27377377 heartbeat IPC: 1.41464 cumulative IPC: 1.60287 (Simulation time: 2 hr 38 min 45 sec) 
Heartbeat CPU 0 instructions: 80000001 cycles: 32478623 heartbeat IPC: 1.96031 cumulative IPC: 1.70659 (Simulation time: 2 hr 50 min 29 sec) 
Heartbeat CPU 0 instructions: 90000002 cycles: 39316115 heartbeat IPC: 1.46252 cumulative IPC: 1.63824 (Simulation time: 2 hr 59 min 29 sec) 
Heartbeat CPU 0 instructions: 100000001 cycles: 47241213 heartbeat IPC: 1.26181 cumulative IPC: 1.546 (Simulation time: 3 hr 5 min 18 sec) 
Finished CPU 0 instructions: 50000000 cycles: 32341487 cumulative IPC: 1.546 (Simulation time: 3 hr 5 min 18 sec) 

ChampSim completed all CPUs

Region of Interest Statistics

CPU 0 cumulative IPC: 1.546 instructions: 50000000 cycles: 32341487
L1D TOTAL     ACCESS:   14545491  HIT:   13979334  MISS:     566157
L1D LOAD      ACCESS:    9281996  HIT:    8791695  MISS:     490301
L1D RFO       ACCESS:    5263495  HIT:    5187639  MISS:      75856
L1D PREFETCH  ACCESS:          0  HIT:          0  MISS:          0
L1D WRITEBACK ACCESS:          0  HIT:          0  MISS:          0
L1D PREFETCH  REQUESTED:          0  ISSUED:          0  USEFUL:          0  USELESS:          0
L1D AVERAGE MISS LATENCY: 48.8886 cycles
L1I TOTAL     ACCESS:    2241572  HIT:    1437159  MISS:     804413
L1I LOAD      ACCESS:    2241572  HIT:    1437159  MISS:     804413
L1I RFO       ACCESS:          0  HIT:          0  MISS:          0
L1I PREFETCH  ACCESS:          0  HIT:          0  MISS:          0
L1I WRITEBACK ACCESS:          0  HIT:          0  MISS:          0
L1I PREFETCH  REQUESTED:          0  ISSUED:          0  USEFUL:          0  USELESS:          0
L1I AVERAGE MISS LATENCY: 7.80745 cycles
L2C TOTAL     ACCESS:    1602729  HIT:    1425430  MISS:     177299
L2C LOAD      ACCESS:    1294711  HIT:    1165688  MISS:     129023
L2C RFO       ACCESS:      75855  HIT:      28139  MISS:      47716
L2C PREFETCH  ACCESS:          0  HIT:          0  MISS:          0
L2C WRITEBACK ACCESS:     232163  HIT:     231603  MISS:        560
L2C PREFETCH  REQUESTED:          0  ISSUED:          0  USEFUL:          0  USELESS:          0
L2C AVERAGE MISS LATENCY: 141.903 cycles
LLC TOTAL     ACCESS:     251820  HIT:     131556  MISS:     120264
LLC LOAD      ACCESS:     129023  HIT:      50215  MISS:      78808
LLC RFO       ACCESS:      47716  HIT:       6360  MISS:      41356
LLC PREFETCH  ACCESS:          0  HIT:          0  MISS:          0
LLC WRITEBACK ACCESS:      75081  HIT:      74981  MISS:        100
LLC PREFETCH  REQUESTED:          0  ISSUED:          0  USEFUL:          0  USELESS:          0
LLC AVERAGE MISS LATENCY: 193.033 cycles

DRAM Statistics
 CHANNEL 0
 RQ ROW_BUFFER_HIT:      22526  ROW_BUFFER_MISS:      97616
 DBUS_CONGESTED:      64786
 WQ ROW_BUFFER_HIT:      12518  ROW_BUFFER_MISS:      45892  FULL:          0

 AVG_CONGESTED_CYCLE: 6

CPU 0 Branch Prediction Accuracy: 93.2168% MPKI: 11.0877 Average ROB Occupancy at Mispredict: 171.839
Branch type MPKI
BRANCH_DIRECT_JUMP: 0.00798
BRANCH_INDIRECT: 0.83128
BRANCH_CONDITIONAL: 8.6641
BRANCH_DIRECT_CALL: 0.01586
BRANCH_INDIRECT_CALL: 1.12364
BRANCH_RETURN: 0.44484

