
VirtualMemory physical capacity: 8589934592 num_ppages: 2097152
VirtualMemory page size: 4096 log2_page_size: 12
VirtualMemory initalizing ppage free list ... done
VirtualMemory shuffling ppage free list ... done


*** ChampSim Multicore Out-of-Order Simulator ***

Warmup Instructions: 50000000
Simulation Instructions: 50000000
Number of CPUs: 1
LLC sets: 2048
LLC ways: 16
Off-chip DRAM Size: 4096 MB Channels: 1 Width: 64-bit Data Rate: 3200 MT/s

CPU 0 runs ipc1_public/client_002.champsimtrace.xz
CPU 0 Bimodal branch predictor
Basic BTB sets: 1024 ways: 8 indirect buffer size: 4096 RAS size: 64
LHT KB: 31.56
SCC KB: 1.56
Total KB: 33.12
Heartbeat CPU 0 instructions: 10000002 cycles: 2539950 heartbeat IPC: 3.93709 cumulative IPC: 3.93709 (Simulation time: 0 hr 16 min 46 sec) 
Heartbeat CPU 0 instructions: 20000002 cycles: 5080770 heartbeat IPC: 3.93574 cumulative IPC: 3.93641 (Simulation time: 0 hr 32 min 40 sec) 
Heartbeat CPU 0 instructions: 30000003 cycles: 7621860 heartbeat IPC: 3.93532 cumulative IPC: 3.93605 (Simulation time: 0 hr 48 min 54 sec) 
Heartbeat CPU 0 instructions: 40000002 cycles: 10165265 heartbeat IPC: 3.93174 cumulative IPC: 3.93497 (Simulation time: 1 hr 5 min 56 sec) 
Heartbeat CPU 0 instructions: 50000002 cycles: 12703509 heartbeat IPC: 3.93973 cumulative IPC: 3.93592 (Simulation time: 1 hr 17 min 48 sec) 

Warmup complete CPU 0 instructions: 50000002 cycles: 12703509 (Simulation time: 1 hr 17 min 48 sec) 

Heartbeat CPU 0 instructions: 60000003 cycles: 18215386 heartbeat IPC: 1.81426 cumulative IPC: 1.81426 (Simulation time: 1 hr 22 min 48 sec) 
Heartbeat CPU 0 instructions: 70000000 cycles: 23784077 heartbeat IPC: 1.79575 cumulative IPC: 1.80496 (Simulation time: 1 hr 33 min 39 sec) 
Heartbeat CPU 0 instructions: 80000000 cycles: 29157315 heartbeat IPC: 1.86108 cumulative IPC: 1.82329 (Simulation time: 1 hr 41 min 33 sec) 
Heartbeat CPU 0 instructions: 90000001 cycles: 35020003 heartbeat IPC: 1.7057 cumulative IPC: 1.7924 (Simulation time: 1 hr 52 min 9 sec) 
Heartbeat CPU 0 instructions: 100000002 cycles: 40386921 heartbeat IPC: 1.86327 cumulative IPC: 1.80614 (Simulation time: 1 hr 58 min 11 sec) 
Finished CPU 0 instructions: 50000000 cycles: 27683412 cumulative IPC: 1.80614 (Simulation time: 1 hr 58 min 11 sec) 

ChampSim completed all CPUs

Region of Interest Statistics

CPU 0 cumulative IPC: 1.80614 instructions: 50000000 cycles: 27683412
L1D TOTAL     ACCESS:   13964386  HIT:   13723735  MISS:     240651
L1D LOAD      ACCESS:    7441323  HIT:    7297842  MISS:     143481
L1D RFO       ACCESS:    6523063  HIT:    6425893  MISS:      97170
L1D PREFETCH  ACCESS:          0  HIT:          0  MISS:          0
L1D WRITEBACK ACCESS:          0  HIT:          0  MISS:          0
L1D PREFETCH  REQUESTED:          0  ISSUED:          0  USEFUL:          0  USELESS:          0
L1D AVERAGE MISS LATENCY: 57.4148 cycles
L1I TOTAL     ACCESS:   17154233  HIT:   14514109  MISS:    2640124
L1I LOAD      ACCESS:    4587186  HIT:    4125578  MISS:     461608
L1I RFO       ACCESS:          0  HIT:          0  MISS:          0
L1I PREFETCH  ACCESS:   12567047  HIT:   10388531  MISS:    2178516
L1I WRITEBACK ACCESS:          0  HIT:          0  MISS:          0
L1I PREFETCH  REQUESTED:   15436252  ISSUED:   15436252  USEFUL:          0  USELESS:          0
L1I AVERAGE MISS LATENCY: 7.28976 cycles
L2C TOTAL     ACCESS:    2999103  HIT:    2710238  MISS:     288865
L2C LOAD      ACCESS:     523075  HIT:     453290  MISS:      69785
L2C RFO       ACCESS:      97167  HIT:      21307  MISS:      75860
L2C PREFETCH  ACCESS:    2260530  HIT:    2118623  MISS:     141907
L2C WRITEBACK ACCESS:     118331  HIT:     117018  MISS:       1313
L2C PREFETCH  REQUESTED:          0  ISSUED:          0  USEFUL:     100561  USELESS:      41028
L2C AVERAGE MISS LATENCY: 53.5209 cycles
LLC TOTAL     ACCESS:     373345  HIT:     315981  MISS:      57364
LLC LOAD      ACCESS:      69785  HIT:      52945  MISS:      16840
LLC RFO       ACCESS:      75860  HIT:      42353  MISS:      33507
LLC PREFETCH  ACCESS:     141907  HIT:     135008  MISS:       6899
LLC WRITEBACK ACCESS:      85793  HIT:      85675  MISS:        118
LLC PREFETCH  REQUESTED:          0  ISSUED:          0  USEFUL:       2700  USELESS:       3790
LLC AVERAGE MISS LATENCY: 214.361 cycles

DRAM Statistics
 CHANNEL 0
 RQ ROW_BUFFER_HIT:      18463  ROW_BUFFER_MISS:      38782
 DBUS_CONGESTED:      43962
 WQ ROW_BUFFER_HIT:      10448  ROW_BUFFER_MISS:      27440  FULL:          0

 AVG_CONGESTED_CYCLE: 6

CPU 0 Branch Prediction Accuracy: 94.1064% MPKI: 11.1956 Average ROB Occupancy at Mispredict: 119.09
Branch type MPKI
BRANCH_DIRECT_JUMP: 0.05582
BRANCH_INDIRECT: 0.68118
BRANCH_CONDITIONAL: 9.93228
BRANCH_DIRECT_CALL: 0.10118
BRANCH_INDIRECT_CALL: 0.37732
BRANCH_RETURN: 0.0478

