
VirtualMemory physical capacity: 8589934592 num_ppages: 2097152
VirtualMemory page size: 4096 log2_page_size: 12
VirtualMemory initalizing ppage free list ... done
VirtualMemory shuffling ppage free list ... done


*** ChampSim Multicore Out-of-Order Simulator ***

Warmup Instructions: 50000000
Simulation Instructions: 50000000
Number of CPUs: 1
LLC sets: 2048
LLC ways: 16
Off-chip DRAM Size: 4096 MB Channels: 1 Width: 64-bit Data Rate: 3200 MT/s

CPU 0 runs ipc1_public/client_004.champsimtrace.xz
CPU 0 Bimodal branch predictor
Basic BTB sets: 1024 ways: 8 indirect buffer size: 4096 RAS size: 64
Heartbeat CPU 0 instructions: 10000001 cycles: 2854655 heartbeat IPC: 3.50305 cumulative IPC: 3.50305 (Simulation time: 0 hr 10 min 18 sec) 
Heartbeat CPU 0 instructions: 20000001 cycles: 5525364 heartbeat IPC: 3.74432 cumulative IPC: 3.61967 (Simulation time: 0 hr 22 min 41 sec) 
Heartbeat CPU 0 instructions: 30000003 cycles: 8300517 heartbeat IPC: 3.60341 cumulative IPC: 3.61423 (Simulation time: 0 hr 35 min 24 sec) 
Heartbeat CPU 0 instructions: 40000002 cycles: 11080910 heartbeat IPC: 3.59661 cumulative IPC: 3.60981 (Simulation time: 0 hr 45 min 27 sec) 
Heartbeat CPU 0 instructions: 50000003 cycles: 13900429 heartbeat IPC: 3.5467 cumulative IPC: 3.59701 (Simulation time: 0 hr 55 min 31 sec) 

Warmup complete CPU 0 instructions: 50000003 cycles: 13900429 (Simulation time: 0 hr 55 min 31 sec) 

Heartbeat CPU 0 instructions: 60000001 cycles: 21135129 heartbeat IPC: 1.38223 cumulative IPC: 1.38223 (Simulation time: 1 hr 2 min 39 sec) 
Heartbeat CPU 0 instructions: 70000001 cycles: 28598083 heartbeat IPC: 1.33995 cumulative IPC: 1.36076 (Simulation time: 1 hr 11 min 54 sec) 
Heartbeat CPU 0 instructions: 80000003 cycles: 36453143 heartbeat IPC: 1.27306 cumulative IPC: 1.33022 (Simulation time: 1 hr 25 min 31 sec) 
Heartbeat CPU 0 instructions: 90000004 cycles: 43755206 heartbeat IPC: 1.36948 cumulative IPC: 1.33982 (Simulation time: 1 hr 34 min 37 sec) 
Heartbeat CPU 0 instructions: 100000000 cycles: 51254675 heartbeat IPC: 1.33343 cumulative IPC: 1.33854 (Simulation time: 1 hr 47 min 6 sec) 
Finished CPU 0 instructions: 50000002 cycles: 37354247 cumulative IPC: 1.33854 (Simulation time: 1 hr 47 min 6 sec) 

ChampSim completed all CPUs

Region of Interest Statistics

CPU 0 cumulative IPC: 1.33854 instructions: 50000002 cycles: 37354247
L1D TOTAL     ACCESS:   14586224  HIT:   14058005  MISS:     528219
L1D LOAD      ACCESS:    9636913  HIT:    9238658  MISS:     398255
L1D RFO       ACCESS:    4949311  HIT:    4819347  MISS:     129964
L1D PREFETCH  ACCESS:          0  HIT:          0  MISS:          0
L1D WRITEBACK ACCESS:          0  HIT:          0  MISS:          0
L1D PREFETCH  REQUESTED:          0  ISSUED:          0  USEFUL:          0  USELESS:          0
L1D AVERAGE MISS LATENCY: 25.2129 cycles
L1I TOTAL     ACCESS:    2623316  HIT:    1071783  MISS:    1551533
L1I LOAD      ACCESS:    2623316  HIT:    1071783  MISS:    1551533
L1I RFO       ACCESS:          0  HIT:          0  MISS:          0
L1I PREFETCH  ACCESS:          0  HIT:          0  MISS:          0
L1I WRITEBACK ACCESS:          0  HIT:          0  MISS:          0
L1I PREFETCH  REQUESTED:          0  ISSUED:          0  USEFUL:          0  USELESS:          0
L1I AVERAGE MISS LATENCY: 10.5441 cycles
L2C TOTAL     ACCESS:    2271615  HIT:    2037397  MISS:     234218
L2C LOAD      ACCESS:    1949781  HIT:    1797395  MISS:     152386
L2C RFO       ACCESS:     129961  HIT:      48754  MISS:      81207
L2C PREFETCH  ACCESS:          0  HIT:          0  MISS:          0
L2C WRITEBACK ACCESS:     191873  HIT:     191248  MISS:        625
L2C PREFETCH  REQUESTED:          0  ISSUED:          0  USEFUL:          0  USELESS:          0
L2C AVERAGE MISS LATENCY: 71.401 cycles
LLC TOTAL     ACCESS:     326376  HIT:     241036  MISS:      85340
LLC LOAD      ACCESS:     152386  HIT:     103090  MISS:      49296
LLC RFO       ACCESS:      81207  HIT:      45230  MISS:      35977
LLC PREFETCH  ACCESS:          0  HIT:          0  MISS:          0
LLC WRITEBACK ACCESS:      92783  HIT:      92716  MISS:         67
LLC PREFETCH  REQUESTED:          0  ISSUED:          0  USEFUL:          0  USELESS:          0
LLC AVERAGE MISS LATENCY: 165.847 cycles

DRAM Statistics
 CHANNEL 0
 RQ ROW_BUFFER_HIT:      17342  ROW_BUFFER_MISS:      67902
 DBUS_CONGESTED:      28984
 WQ ROW_BUFFER_HIT:       9410  ROW_BUFFER_MISS:      24750  FULL:          0

 AVG_CONGESTED_CYCLE: 6

CPU 0 Branch Prediction Accuracy: 89.6274% MPKI: 20.4933 Average ROB Occupancy at Mispredict: 91.7962
Branch type MPKI
BRANCH_DIRECT_JUMP: 0.2633
BRANCH_INDIRECT: 0.98636
BRANCH_CONDITIONAL: 15.9258
BRANCH_DIRECT_CALL: 0.44148
BRANCH_INDIRECT_CALL: 2.66182
BRANCH_RETURN: 0.21454

