
VirtualMemory physical capacity: 8589934592 num_ppages: 2097152
VirtualMemory page size: 4096 log2_page_size: 12
VirtualMemory initalizing ppage free list ... done
VirtualMemory shuffling ppage free list ... done


*** ChampSim Multicore Out-of-Order Simulator ***

Warmup Instructions: 50000000
Simulation Instructions: 50000000
Number of CPUs: 1
LLC sets: 2048
LLC ways: 16
Off-chip DRAM Size: 4096 MB Channels: 1 Width: 64-bit Data Rate: 3200 MT/s

CPU 0 runs ipc1_public/client_007.champsimtrace.xz
CPU 0 Bimodal branch predictor
Basic BTB sets: 1024 ways: 8 indirect buffer size: 4096 RAS size: 64
Heartbeat CPU 0 instructions: 10000001 cycles: 2745706 heartbeat IPC: 3.64205 cumulative IPC: 3.64205 (Simulation time: 0 hr 10 min 6 sec) 
Heartbeat CPU 0 instructions: 20000002 cycles: 5512887 heartbeat IPC: 3.61379 cumulative IPC: 3.62786 (Simulation time: 0 hr 24 min 47 sec) 
Heartbeat CPU 0 instructions: 30000002 cycles: 8910690 heartbeat IPC: 2.94308 cumulative IPC: 3.36674 (Simulation time: 0 hr 39 min 41 sec) 
Heartbeat CPU 0 instructions: 40000001 cycles: 12270984 heartbeat IPC: 2.97593 cumulative IPC: 3.25972 (Simulation time: 0 hr 59 min 8 sec) 
Heartbeat CPU 0 instructions: 50000001 cycles: 15028647 heartbeat IPC: 3.62626 cumulative IPC: 3.32698 (Simulation time: 1 hr 11 min 37 sec) 

Warmup complete CPU 0 instructions: 50000001 cycles: 15028647 (Simulation time: 1 hr 11 min 37 sec) 

Heartbeat CPU 0 instructions: 60000000 cycles: 20618241 heartbeat IPC: 1.78904 cumulative IPC: 1.78904 (Simulation time: 1 hr 29 min 53 sec) 
Heartbeat CPU 0 instructions: 70000002 cycles: 27725132 heartbeat IPC: 1.40709 cumulative IPC: 1.57524 (Simulation time: 1 hr 46 min 42 sec) 
Heartbeat CPU 0 instructions: 80000001 cycles: 32902467 heartbeat IPC: 1.9315 cumulative IPC: 1.67843 (Simulation time: 1 hr 54 min 57 sec) 
Heartbeat CPU 0 instructions: 90000002 cycles: 39950748 heartbeat IPC: 1.41879 cumulative IPC: 1.605 (Simulation time: 2 hr 6 min 21 sec) 
Heartbeat CPU 0 instructions: 100000001 cycles: 47987669 heartbeat IPC: 1.24426 cumulative IPC: 1.51704 (Simulation time: 2 hr 10 min 57 sec) 
Finished CPU 0 instructions: 50000000 cycles: 32959022 cumulative IPC: 1.51704 (Simulation time: 2 hr 10 min 57 sec) 

ChampSim completed all CPUs

Region of Interest Statistics

CPU 0 cumulative IPC: 1.51704 instructions: 50000000 cycles: 32959022
L1D TOTAL     ACCESS:   14587797  HIT:   14021690  MISS:     566107
L1D LOAD      ACCESS:    9324352  HIT:    8834129  MISS:     490223
L1D RFO       ACCESS:    5263445  HIT:    5187561  MISS:      75884
L1D PREFETCH  ACCESS:          0  HIT:          0  MISS:          0
L1D WRITEBACK ACCESS:          0  HIT:          0  MISS:          0
L1D PREFETCH  REQUESTED:          0  ISSUED:          0  USEFUL:          0  USELESS:          0
L1D AVERAGE MISS LATENCY: 48.8706 cycles
L1I TOTAL     ACCESS:    2179500  HIT:     749533  MISS:    1429967
L1I LOAD      ACCESS:    2179500  HIT:     749533  MISS:    1429967
L1I RFO       ACCESS:          0  HIT:          0  MISS:          0
L1I PREFETCH  ACCESS:          0  HIT:          0  MISS:          0
L1I WRITEBACK ACCESS:          0  HIT:          0  MISS:          0
L1I PREFETCH  REQUESTED:          0  ISSUED:          0  USEFUL:          0  USELESS:          0
L1I AVERAGE MISS LATENCY: 7.02964 cycles
L2C TOTAL     ACCESS:    2228176  HIT:    2050505  MISS:     177671
L2C LOAD      ACCESS:    1920188  HIT:    1790842  MISS:     129346
L2C RFO       ACCESS:      75883  HIT:      28121  MISS:      47762
L2C PREFETCH  ACCESS:          0  HIT:          0  MISS:          0
L2C WRITEBACK ACCESS:     232105  HIT:     231542  MISS:        563
L2C PREFETCH  REQUESTED:          0  ISSUED:          0  USEFUL:          0  USELESS:          0
L2C AVERAGE MISS LATENCY: 141.576 cycles
LLC TOTAL     ACCESS:     252327  HIT:     131921  MISS:     120406
LLC LOAD      ACCESS:     129346  HIT:      50424  MISS:      78922
LLC RFO       ACCESS:      47762  HIT:       6375  MISS:      41387
LLC PREFETCH  ACCESS:          0  HIT:          0  MISS:          0
LLC WRITEBACK ACCESS:      75219  HIT:      75122  MISS:         97
LLC PREFETCH  REQUESTED:          0  ISSUED:          0  USEFUL:          0  USELESS:          0
LLC AVERAGE MISS LATENCY: 192.727 cycles

DRAM Statistics
 CHANNEL 0
 RQ ROW_BUFFER_HIT:      22569  ROW_BUFFER_MISS:      97715
 DBUS_CONGESTED:      64627
 WQ ROW_BUFFER_HIT:      12465  ROW_BUFFER_MISS:      45956  FULL:          0

 AVG_CONGESTED_CYCLE: 6

CPU 0 Branch Prediction Accuracy: 93.2168% MPKI: 11.0877 Average ROB Occupancy at Mispredict: 166.26
Branch type MPKI
BRANCH_DIRECT_JUMP: 0.00798
BRANCH_INDIRECT: 0.83128
BRANCH_CONDITIONAL: 8.6641
BRANCH_DIRECT_CALL: 0.01586
BRANCH_INDIRECT_CALL: 1.12364
BRANCH_RETURN: 0.44484

