
VirtualMemory physical capacity: 8589934592 num_ppages: 2097152
VirtualMemory page size: 4096 log2_page_size: 12
VirtualMemory initalizing ppage free list ... done
VirtualMemory shuffling ppage free list ... done


*** ChampSim Multicore Out-of-Order Simulator ***

Warmup Instructions: 50000000
Simulation Instructions: 50000000
Number of CPUs: 1
LLC sets: 2048
LLC ways: 16
Off-chip DRAM Size: 4096 MB Channels: 1 Width: 64-bit Data Rate: 3200 MT/s

CPU 0 runs ipc1_public/client_008.champsimtrace.xz
CPU 0 Bimodal branch predictor
Basic BTB sets: 1024 ways: 8 indirect buffer size: 4096 RAS size: 64
CPU 0 L1I next line prefetcher
Heartbeat CPU 0 instructions: 10000003 cycles: 2941362 heartbeat IPC: 3.39979 cumulative IPC: 3.39979 (Simulation time: 0 hr 19 min 48 sec) 
Heartbeat CPU 0 instructions: 20000004 cycles: 5917575 heartbeat IPC: 3.35997 cumulative IPC: 3.37976 (Simulation time: 0 hr 39 min 27 sec) 
Heartbeat CPU 0 instructions: 30000004 cycles: 8874611 heartbeat IPC: 3.38176 cumulative IPC: 3.38043 (Simulation time: 0 hr 58 min 54 sec) 
Heartbeat CPU 0 instructions: 40000000 cycles: 11878996 heartbeat IPC: 3.32847 cumulative IPC: 3.36729 (Simulation time: 1 hr 17 min 14 sec) 
Heartbeat CPU 0 instructions: 50000000 cycles: 14871789 heartbeat IPC: 3.34136 cumulative IPC: 3.36207 (Simulation time: 1 hr 31 min 5 sec) 

Warmup complete CPU 0 instructions: 50000002 cycles: 14871790 (Simulation time: 1 hr 31 min 5 sec) 

Heartbeat CPU 0 instructions: 60000003 cycles: 21741124 heartbeat IPC: 1.45575 cumulative IPC: 1.45575 (Simulation time: 1 hr 42 min 25 sec) 
Heartbeat CPU 0 instructions: 70000001 cycles: 28176164 heartbeat IPC: 1.55399 cumulative IPC: 1.50326 (Simulation time: 1 hr 53 min 8 sec) 
Heartbeat CPU 0 instructions: 80000000 cycles: 35032952 heartbeat IPC: 1.45841 cumulative IPC: 1.48801 (Simulation time: 2 hr 1 min 56 sec) 
Heartbeat CPU 0 instructions: 90000001 cycles: 40850836 heartbeat IPC: 1.71884 cumulative IPC: 1.5397 (Simulation time: 2 hr 11 min 54 sec) 
Heartbeat CPU 0 instructions: 100000001 cycles: 47918309 heartbeat IPC: 1.41493 cumulative IPC: 1.51302 (Simulation time: 2 hr 19 min 6 sec) 
Finished CPU 0 instructions: 50000000 cycles: 33046520 cumulative IPC: 1.51302 (Simulation time: 2 hr 19 min 6 sec) 

ChampSim completed all CPUs

Region of Interest Statistics

CPU 0 cumulative IPC: 1.51302 instructions: 50000000 cycles: 33046520
L1D TOTAL     ACCESS:   13963876  HIT:   13094773  MISS:     869103
L1D LOAD      ACCESS:    9024430  HIT:    8272583  MISS:     751847
L1D RFO       ACCESS:    4939446  HIT:    4822190  MISS:     117256
L1D PREFETCH  ACCESS:          0  HIT:          0  MISS:          0
L1D WRITEBACK ACCESS:          0  HIT:          0  MISS:          0
L1D PREFETCH  REQUESTED:          0  ISSUED:          0  USEFUL:          0  USELESS:          0
L1D AVERAGE MISS LATENCY: 39.8471 cycles
L1I TOTAL     ACCESS:    5063739  HIT:    3330685  MISS:    1733054
L1I LOAD      ACCESS:    3382791  HIT:    2714301  MISS:     668490
L1I RFO       ACCESS:          0  HIT:          0  MISS:          0
L1I PREFETCH  ACCESS:    1680948  HIT:     616384  MISS:    1064564
L1I WRITEBACK ACCESS:          0  HIT:          0  MISS:          0
L1I PREFETCH  REQUESTED:    1771766  ISSUED:    1771759  USEFUL:          0  USELESS:          0
L1I AVERAGE MISS LATENCY: 8.19666 cycles
L2C TOTAL     ACCESS:    2770162  HIT:    2444026  MISS:     326136
L2C LOAD      ACCESS:    1386080  HIT:    1191568  MISS:     194512
L2C RFO       ACCESS:     117255  HIT:      14875  MISS:     102380
L2C PREFETCH  ACCESS:    1098820  HIT:    1070148  MISS:      28672
L2C WRITEBACK ACCESS:     168007  HIT:     167435  MISS:        572
L2C PREFETCH  REQUESTED:          0  ISSUED:          0  USEFUL:      23069  USELESS:       5873
L2C AVERAGE MISS LATENCY: 96.2725 cycles
LLC TOTAL     ACCESS:     454978  HIT:     307238  MISS:     147740
LLC LOAD      ACCESS:     194510  HIT:     147806  MISS:      46704
LLC RFO       ACCESS:     102380  HIT:       9025  MISS:      93355
LLC PREFETCH  ACCESS:      28672  HIT:      21239  MISS:       7433
LLC WRITEBACK ACCESS:     129416  HIT:     129168  MISS:        248
LLC PREFETCH  REQUESTED:          0  ISSUED:          0  USEFUL:       2696  USELESS:       5345
LLC AVERAGE MISS LATENCY: 188.277 cycles
I-Shadow cache 408 bytes
Touched + WorthPF tables 6144 bytes 
MMA filter 174 bytes 
FNL filter 272 bytes 
TOTAL PREFETCHER STORAGE SIZE: 25174 bytes
CPU 0 L1I next line prefetcher final stats

DRAM Statistics
 CHANNEL 0
 RQ ROW_BUFFER_HIT:      36213  ROW_BUFFER_MISS:     111267
 DBUS_CONGESTED:      83964
 WQ ROW_BUFFER_HIT:      26048  ROW_BUFFER_MISS:      61437  FULL:          0

 AVG_CONGESTED_CYCLE: 6

CPU 0 Branch Prediction Accuracy: 93.4999% MPKI: 15.1715 Average ROB Occupancy at Mispredict: 124.018
Branch type MPKI
BRANCH_DIRECT_JUMP: 0.02592
BRANCH_INDIRECT: 1.26656
BRANCH_CONDITIONAL: 11.0842
BRANCH_DIRECT_CALL: 0.0467
BRANCH_INDIRECT_CALL: 2.73406
BRANCH_RETURN: 0.014

