
VirtualMemory physical capacity: 8589934592 num_ppages: 2097152
VirtualMemory page size: 4096 log2_page_size: 12
VirtualMemory initalizing ppage free list ... done
VirtualMemory shuffling ppage free list ... done


*** ChampSim Multicore Out-of-Order Simulator ***

Warmup Instructions: 50000000
Simulation Instructions: 50000000
Number of CPUs: 1
LLC sets: 2048
LLC ways: 16
Off-chip DRAM Size: 4096 MB Channels: 1 Width: 64-bit Data Rate: 3200 MT/s

CPU 0 runs ipc1_public/client_004.champsimtrace.xz
CPU 0 Bimodal branch predictor
Basic BTB sets: 1024 ways: 8 indirect buffer size: 4096 RAS size: 64
CPU 0 Temporal Ancestry L1I prefetcher
Heartbeat CPU 0 instructions: 10000002 cycles: 2799149 heartbeat IPC: 3.57252 cumulative IPC: 3.57252 (Simulation time: 0 hr 8 min 0 sec) 
Heartbeat CPU 0 instructions: 20000001 cycles: 5443272 heartbeat IPC: 3.78197 cumulative IPC: 3.67426 (Simulation time: 0 hr 15 min 51 sec) 
Heartbeat CPU 0 instructions: 30000002 cycles: 8183080 heartbeat IPC: 3.64989 cumulative IPC: 3.6661 (Simulation time: 0 hr 23 min 36 sec) 
Heartbeat CPU 0 instructions: 40000000 cycles: 10921275 heartbeat IPC: 3.65204 cumulative IPC: 3.66258 (Simulation time: 0 hr 30 min 58 sec) 
Heartbeat CPU 0 instructions: 50000002 cycles: 13665930 heartbeat IPC: 3.64345 cumulative IPC: 3.65873 (Simulation time: 0 hr 43 min 20 sec) 

Warmup complete CPU 0 instructions: 50000002 cycles: 13665930 (Simulation time: 0 hr 43 min 20 sec) 

Heartbeat CPU 0 instructions: 60000001 cycles: 20025880 heartbeat IPC: 1.57234 cumulative IPC: 1.57234 (Simulation time: 0 hr 53 min 43 sec) 
Heartbeat CPU 0 instructions: 70000001 cycles: 26669483 heartbeat IPC: 1.50521 cumulative IPC: 1.53804 (Simulation time: 1 hr 5 min 2 sec) 
Heartbeat CPU 0 instructions: 80000003 cycles: 33601157 heartbeat IPC: 1.44265 cumulative IPC: 1.50487 (Simulation time: 1 hr 12 min 54 sec) 
Heartbeat CPU 0 instructions: 90000004 cycles: 40134481 heartbeat IPC: 1.53061 cumulative IPC: 1.51123 (Simulation time: 1 hr 17 min 57 sec) 
Heartbeat CPU 0 instructions: 100000004 cycles: 46690961 heartbeat IPC: 1.52521 cumulative IPC: 1.514 (Simulation time: 1 hr 23 min 55 sec) 
Finished CPU 0 instructions: 50000002 cycles: 33025031 cumulative IPC: 1.514 (Simulation time: 1 hr 23 min 55 sec) 

ChampSim completed all CPUs

Region of Interest Statistics

CPU 0 cumulative IPC: 1.514 instructions: 50000002 cycles: 33025031
L1D TOTAL     ACCESS:   14472563  HIT:   13944362  MISS:     528201
L1D LOAD      ACCESS:    9537011  HIT:    9138594  MISS:     398417
L1D RFO       ACCESS:    4935552  HIT:    4805768  MISS:     129784
L1D PREFETCH  ACCESS:          0  HIT:          0  MISS:          0
L1D WRITEBACK ACCESS:          0  HIT:          0  MISS:          0
L1D PREFETCH  REQUESTED:          0  ISSUED:          0  USEFUL:          0  USELESS:          0
L1D AVERAGE MISS LATENCY: 27.7458 cycles
L1I TOTAL     ACCESS:    6297526  HIT:    4560859  MISS:    1736667
L1I LOAD      ACCESS:    2710410  HIT:    2221518  MISS:     488892
L1I RFO       ACCESS:          0  HIT:          0  MISS:          0
L1I PREFETCH  ACCESS:    3587116  HIT:    2339341  MISS:    1247775
L1I WRITEBACK ACCESS:          0  HIT:          0  MISS:          0
L1I PREFETCH  REQUESTED:    4454343  ISSUED:    4447501  USEFUL:     748407  USELESS:     499305
L1I AVERAGE MISS LATENCY: 10.4022 cycles
L2C TOTAL     ACCESS:    2456699  HIT:    2145063  MISS:     311636
L2C LOAD      ACCESS:     759613  HIT:     651661  MISS:     107952
L2C RFO       ACCESS:     129781  HIT:      42622  MISS:      87159
L2C PREFETCH  ACCESS:    1375464  HIT:    1261589  MISS:     113875
L2C WRITEBACK ACCESS:     191841  HIT:     189191  MISS:       2650
L2C PREFETCH  REQUESTED:          0  ISSUED:          0  USEFUL:      66108  USELESS:      47771
L2C AVERAGE MISS LATENCY: 66.498 cycles
LLC TOTAL     ACCESS:     411061  HIT:     311263  MISS:      99798
LLC LOAD      ACCESS:     107952  HIT:      80383  MISS:      27569
LLC RFO       ACCESS:      87158  HIT:      47961  MISS:      39197
LLC PREFETCH  ACCESS:     113875  HIT:      80880  MISS:      32995
LLC WRITEBACK ACCESS:     102076  HIT:     102039  MISS:         37
LLC PREFETCH  REQUESTED:          0  ISSUED:          0  USEFUL:      18964  USELESS:      12390
LLC AVERAGE MISS LATENCY: 173.586 cycles

DRAM Statistics
 CHANNEL 0
 RQ ROW_BUFFER_HIT:      18747  ROW_BUFFER_MISS:      80976
 DBUS_CONGESTED:      41967
 WQ ROW_BUFFER_HIT:       8608  ROW_BUFFER_MISS:      30580  FULL:          0

 AVG_CONGESTED_CYCLE: 6

CPU 0 Branch Prediction Accuracy: 89.6274% MPKI: 20.4933 Average ROB Occupancy at Mispredict: 101.018
Branch type MPKI
BRANCH_DIRECT_JUMP: 0.2633
BRANCH_INDIRECT: 0.98636
BRANCH_CONDITIONAL: 15.9258
BRANCH_DIRECT_CALL: 0.44148
BRANCH_INDIRECT_CALL: 2.66182
BRANCH_RETURN: 0.21454

