
VirtualMemory physical capacity: 8589934592 num_ppages: 2097152
VirtualMemory page size: 4096 log2_page_size: 12
VirtualMemory initalizing ppage free list ... done
VirtualMemory shuffling ppage free list ... done


*** ChampSim Multicore Out-of-Order Simulator ***

Warmup Instructions: 50000000
Simulation Instructions: 50000000
Number of CPUs: 1
LLC sets: 2048
LLC ways: 16
Off-chip DRAM Size: 4096 MB Channels: 1 Width: 64-bit Data Rate: 3200 MT/s

CPU 0 runs ipc1_public/client_008.champsimtrace.xz
CPU 0 Bimodal branch predictor
Basic BTB sets: 1024 ways: 8 indirect buffer size: 4096 RAS size: 64
CPU 0 L1I next line prefetcher
Heartbeat CPU 0 instructions: 10000004 cycles: 2884167 heartbeat IPC: 3.46721 cumulative IPC: 3.46721 (Simulation time: 0 hr 8 min 44 sec) 
Heartbeat CPU 0 instructions: 20000004 cycles: 5798527 heartbeat IPC: 3.43129 cumulative IPC: 3.44915 (Simulation time: 0 hr 19 min 12 sec) 
Heartbeat CPU 0 instructions: 30000004 cycles: 8694267 heartbeat IPC: 3.45335 cumulative IPC: 3.45055 (Simulation time: 0 hr 27 min 53 sec) 
Heartbeat CPU 0 instructions: 40000000 cycles: 11635438 heartbeat IPC: 3.4 cumulative IPC: 3.43777 (Simulation time: 0 hr 38 min 18 sec) 
Heartbeat CPU 0 instructions: 50000000 cycles: 14562705 heartbeat IPC: 3.41616 cumulative IPC: 3.43343 (Simulation time: 0 hr 48 min 2 sec) 

Warmup complete CPU 0 instructions: 50000002 cycles: 14562706 (Simulation time: 0 hr 48 min 2 sec) 

Heartbeat CPU 0 instructions: 60000003 cycles: 21042333 heartbeat IPC: 1.5433 cumulative IPC: 1.5433 (Simulation time: 0 hr 55 min 30 sec) 
Heartbeat CPU 0 instructions: 70000001 cycles: 26800560 heartbeat IPC: 1.73665 cumulative IPC: 1.63427 (Simulation time: 1 hr 0 min 30 sec) 
Heartbeat CPU 0 instructions: 80000000 cycles: 33643467 heartbeat IPC: 1.46137 cumulative IPC: 1.57226 (Simulation time: 1 hr 6 min 36 sec) 
Heartbeat CPU 0 instructions: 90000001 cycles: 39463258 heartbeat IPC: 1.71827 cumulative IPC: 1.60639 (Simulation time: 1 hr 9 min 58 sec) 
Heartbeat CPU 0 instructions: 100000001 cycles: 46537955 heartbeat IPC: 1.41349 cumulative IPC: 1.56371 (Simulation time: 1 hr 11 min 0 sec) 
Finished CPU 0 instructions: 50000000 cycles: 31975250 cumulative IPC: 1.56371 (Simulation time: 1 hr 11 min 0 sec) 

ChampSim completed all CPUs

Region of Interest Statistics

CPU 0 cumulative IPC: 1.56371 instructions: 50000000 cycles: 31975250
L1D TOTAL     ACCESS:   13882871  HIT:   13013906  MISS:     868965
L1D LOAD      ACCESS:    8944063  HIT:    8192342  MISS:     751721
L1D RFO       ACCESS:    4938808  HIT:    4821564  MISS:     117244
L1D PREFETCH  ACCESS:          0  HIT:          0  MISS:          0
L1D WRITEBACK ACCESS:          0  HIT:          0  MISS:          0
L1D PREFETCH  REQUESTED:          0  ISSUED:          0  USEFUL:          0  USELESS:          0
L1D AVERAGE MISS LATENCY: 39.8521 cycles
L1I TOTAL     ACCESS:    5097778  HIT:    4008192  MISS:    1089586
L1I LOAD      ACCESS:    3399769  HIT:    3292030  MISS:     107739
L1I RFO       ACCESS:          0  HIT:          0  MISS:          0
L1I PREFETCH  ACCESS:    1698009  HIT:     716162  MISS:     981847
L1I WRITEBACK ACCESS:          0  HIT:          0  MISS:          0
L1I PREFETCH  REQUESTED:    1749939  ISSUED:    1749939  USEFUL:     748487  USELESS:     233449
L1I AVERAGE MISS LATENCY: 9.02062 cycles
L2C TOTAL     ACCESS:    2126566  HIT:    1800060  MISS:     326506
L2C LOAD      ACCESS:     835331  HIT:     641530  MISS:     193801
L2C RFO       ACCESS:     117243  HIT:      14864  MISS:     102379
L2C PREFETCH  ACCESS:    1005975  HIT:     976221  MISS:      29754
L2C WRITEBACK ACCESS:     168017  HIT:     167445  MISS:        572
L2C PREFETCH  REQUESTED:          0  ISSUED:          0  USEFUL:      17252  USELESS:      13243
L2C AVERAGE MISS LATENCY: 96.1595 cycles
LLC TOTAL     ACCESS:     455315  HIT:     307679  MISS:     147636
LLC LOAD      ACCESS:     193800  HIT:     147146  MISS:      46654
LLC RFO       ACCESS:     102379  HIT:       9066  MISS:      93313
LLC PREFETCH  ACCESS:      29754  HIT:      22329  MISS:       7425
LLC WRITEBACK ACCESS:     129382  HIT:     129138  MISS:        244
LLC PREFETCH  REQUESTED:          0  ISSUED:          0  USEFUL:       2756  USELESS:       5255
LLC AVERAGE MISS LATENCY: 188.374 cycles
I-Shadow cache 408 bytes
Touched + WorthPF tables 6144 bytes 
MMA filter 174 bytes 
FNL filter 272 bytes 
TOTAL PREFETCHER STORAGE SIZE: 25174 bytes
CPU 0 L1I next line prefetcher final stats

DRAM Statistics
 CHANNEL 0
 RQ ROW_BUFFER_HIT:      36239  ROW_BUFFER_MISS:     111142
 DBUS_CONGESTED:      84120
 WQ ROW_BUFFER_HIT:      25970  ROW_BUFFER_MISS:      61607  FULL:          0

 AVG_CONGESTED_CYCLE: 6

CPU 0 Branch Prediction Accuracy: 93.4999% MPKI: 15.1715 Average ROB Occupancy at Mispredict: 132.019
Branch type MPKI
BRANCH_DIRECT_JUMP: 0.02592
BRANCH_INDIRECT: 1.26656
BRANCH_CONDITIONAL: 11.0842
BRANCH_DIRECT_CALL: 0.0467
BRANCH_INDIRECT_CALL: 2.73406
BRANCH_RETURN: 0.014

