
VirtualMemory physical capacity: 8589934592 num_ppages: 2097152
VirtualMemory page size: 4096 log2_page_size: 12
VirtualMemory initalizing ppage free list ... done
VirtualMemory shuffling ppage free list ... done


*** ChampSim Multicore Out-of-Order Simulator ***

Warmup Instructions: 50000000
Simulation Instructions: 50000000
Number of CPUs: 1
LLC sets: 2048
LLC ways: 16
Off-chip DRAM Size: 4096 MB Channels: 1 Width: 64-bit Data Rate: 3200 MT/s

CPU 0 runs ipc1_public/client_002.champsimtrace.xz
CPU 0 Bimodal branch predictor
Basic BTB sets: 1024 ways: 8 indirect buffer size: 4096 RAS size: 64
LHT KB: 31.56
SCC KB: 1.56
Total KB: 33.12
Heartbeat CPU 0 instructions: 10000003 cycles: 2516952 heartbeat IPC: 3.97306 cumulative IPC: 3.97306 (Simulation time: 0 hr 14 min 40 sec) 
Heartbeat CPU 0 instructions: 20000000 cycles: 5033278 heartbeat IPC: 3.97405 cumulative IPC: 3.97355 (Simulation time: 0 hr 33 min 16 sec) 
Heartbeat CPU 0 instructions: 30000000 cycles: 7550145 heartbeat IPC: 3.97319 cumulative IPC: 3.97343 (Simulation time: 0 hr 47 min 0 sec) 
Heartbeat CPU 0 instructions: 40000002 cycles: 10068018 heartbeat IPC: 3.97161 cumulative IPC: 3.97298 (Simulation time: 1 hr 0 min 0 sec) 
Heartbeat CPU 0 instructions: 50000000 cycles: 12581786 heartbeat IPC: 3.97809 cumulative IPC: 3.974 (Simulation time: 1 hr 11 min 40 sec) 

Warmup complete CPU 0 instructions: 50000004 cycles: 12581787 (Simulation time: 1 hr 11 min 40 sec) 

Heartbeat CPU 0 instructions: 60000003 cycles: 17985347 heartbeat IPC: 1.85063 cumulative IPC: 1.85063 (Simulation time: 1 hr 25 min 19 sec) 
Heartbeat CPU 0 instructions: 70000000 cycles: 23450794 heartbeat IPC: 1.82968 cumulative IPC: 1.84009 (Simulation time: 1 hr 37 min 27 sec) 
Heartbeat CPU 0 instructions: 80000000 cycles: 28720341 heartbeat IPC: 1.8977 cumulative IPC: 1.8589 (Simulation time: 1 hr 46 min 46 sec) 
Heartbeat CPU 0 instructions: 90000002 cycles: 34470724 heartbeat IPC: 1.73901 cumulative IPC: 1.82741 (Simulation time: 1 hr 55 min 6 sec) 
Heartbeat CPU 0 instructions: 100000002 cycles: 39725686 heartbeat IPC: 1.90296 cumulative IPC: 1.84203 (Simulation time: 2 hr 4 min 11 sec) 
Finished CPU 0 instructions: 50000003 cycles: 27143900 cumulative IPC: 1.84203 (Simulation time: 2 hr 4 min 11 sec) 

ChampSim completed all CPUs

Region of Interest Statistics

CPU 0 cumulative IPC: 1.84203 instructions: 50000003 cycles: 27143900
L1D TOTAL     ACCESS:   13926150  HIT:   13685503  MISS:     240647
L1D LOAD      ACCESS:    7404870  HIT:    7261330  MISS:     143540
L1D RFO       ACCESS:    6521280  HIT:    6424173  MISS:      97107
L1D PREFETCH  ACCESS:          0  HIT:          0  MISS:          0
L1D WRITEBACK ACCESS:          0  HIT:          0  MISS:          0
L1D PREFETCH  REQUESTED:          0  ISSUED:          0  USEFUL:          0  USELESS:          0
L1D AVERAGE MISS LATENCY: 57.7207 cycles
L1I TOTAL     ACCESS:   17648436  HIT:   16411370  MISS:    1237066
L1I LOAD      ACCESS:    4620436  HIT:    4534950  MISS:      85486
L1I RFO       ACCESS:          0  HIT:          0  MISS:          0
L1I PREFETCH  ACCESS:   13028000  HIT:   11876420  MISS:    1151580
L1I WRITEBACK ACCESS:          0  HIT:          0  MISS:          0
L1I PREFETCH  REQUESTED:   15297863  ISSUED:   15297863  USEFUL:     811683  USELESS:     339784
L1I AVERAGE MISS LATENCY: 8.44002 cycles
L2C TOTAL     ACCESS:    1596038  HIT:    1307442  MISS:     288596
L2C LOAD      ACCESS:     182646  HIT:     113267  MISS:      69379
L2C RFO       ACCESS:      97107  HIT:      20680  MISS:      76427
L2C PREFETCH  ACCESS:    1197960  HIT:    1056836  MISS:     141124
L2C WRITEBACK ACCESS:     118325  HIT:     116659  MISS:       1666
L2C PREFETCH  REQUESTED:          0  ISSUED:          0  USEFUL:      68156  USELESS:      72238
L2C AVERAGE MISS LATENCY: 53.8538 cycles
LLC TOTAL     ACCESS:     373642  HIT:     316349  MISS:      57293
LLC LOAD      ACCESS:      69378  HIT:      52511  MISS:      16867
LLC RFO       ACCESS:      76427  HIT:      42978  MISS:      33449
LLC PREFETCH  ACCESS:     141124  HIT:     134257  MISS:       6867
LLC WRITEBACK ACCESS:      86713  HIT:      86603  MISS:        110
LLC PREFETCH  REQUESTED:          0  ISSUED:          0  USEFUL:       2649  USELESS:       3879
LLC AVERAGE MISS LATENCY: 216.17 cycles

DRAM Statistics
 CHANNEL 0
 RQ ROW_BUFFER_HIT:      18222  ROW_BUFFER_MISS:      38962
 DBUS_CONGESTED:      44049
 WQ ROW_BUFFER_HIT:      10287  ROW_BUFFER_MISS:      27466  FULL:          0

 AVG_CONGESTED_CYCLE: 6

CPU 0 Branch Prediction Accuracy: 94.1064% MPKI: 11.1956 Average ROB Occupancy at Mispredict: 124.745
Branch type MPKI
BRANCH_DIRECT_JUMP: 0.05582
BRANCH_INDIRECT: 0.68118
BRANCH_CONDITIONAL: 9.93228
BRANCH_DIRECT_CALL: 0.10118
BRANCH_INDIRECT_CALL: 0.37732
BRANCH_RETURN: 0.0478

