
VirtualMemory physical capacity: 8589934592 num_ppages: 2097152
VirtualMemory page size: 4096 log2_page_size: 12
VirtualMemory initalizing ppage free list ... done
VirtualMemory shuffling ppage free list ... done


*** ChampSim Multicore Out-of-Order Simulator ***

Warmup Instructions: 50000000
Simulation Instructions: 50000000
Number of CPUs: 1
LLC sets: 2048
LLC ways: 16
Off-chip DRAM Size: 4096 MB Channels: 1 Width: 64-bit Data Rate: 3200 MT/s

CPU 0 runs ipc1_public/server_020.champsimtrace.xz
CPU 0 Bimodal branch predictor
Basic BTB sets: 1024 ways: 8 indirect buffer size: 4096 RAS size: 64
Heartbeat CPU 0 instructions: 10000002 cycles: 3070835 heartbeat IPC: 3.25644 cumulative IPC: 3.25644 (Simulation time: 0 hr 24 min 38 sec) 
Heartbeat CPU 0 instructions: 20000004 cycles: 6137546 heartbeat IPC: 3.26082 cumulative IPC: 3.25863 (Simulation time: 0 hr 49 min 6 sec) 
Heartbeat CPU 0 instructions: 30000002 cycles: 9207663 heartbeat IPC: 3.2572 cumulative IPC: 3.25816 (Simulation time: 1 hr 15 min 14 sec) 
Heartbeat CPU 0 instructions: 40000002 cycles: 12278938 heartbeat IPC: 3.25598 cumulative IPC: 3.25761 (Simulation time: 1 hr 35 min 34 sec) 
Heartbeat CPU 0 instructions: 50000001 cycles: 15350648 heartbeat IPC: 3.25552 cumulative IPC: 3.25719 (Simulation time: 1 hr 53 min 7 sec) 

Warmup complete CPU 0 instructions: 50000001 cycles: 15350648 (Simulation time: 1 hr 53 min 7 sec) 

Heartbeat CPU 0 instructions: 60000002 cycles: 38298942 heartbeat IPC: 0.435762 cumulative IPC: 0.435762 (Simulation time: 2 hr 49 min 33 sec) 
Heartbeat CPU 0 instructions: 70000002 cycles: 61148216 heartbeat IPC: 0.437651 cumulative IPC: 0.436704 (Simulation time: 3 hr 7 min 47 sec) 
Heartbeat CPU 0 instructions: 80000001 cycles: 83775760 heartbeat IPC: 0.441939 cumulative IPC: 0.438436 (Simulation time: 3 hr 16 min 22 sec) 
Heartbeat CPU 0 instructions: 90000001 cycles: 106557416 heartbeat IPC: 0.43895 cumulative IPC: 0.438564 (Simulation time: 3 hr 26 min 39 sec) 
Heartbeat CPU 0 instructions: 100000004 cycles: 129231444 heartbeat IPC: 0.441033 cumulative IPC: 0.439056 (Simulation time: 3 hr 36 min 12 sec) 
Finished CPU 0 instructions: 50000003 cycles: 113880796 cumulative IPC: 0.439056 (Simulation time: 3 hr 36 min 12 sec) 

ChampSim completed all CPUs

Region of Interest Statistics

CPU 0 cumulative IPC: 0.439056 instructions: 50000003 cycles: 113880796
L1D TOTAL     ACCESS:   14111708  HIT:   12318840  MISS:    1792868
L1D LOAD      ACCESS:    7514571  HIT:    6680258  MISS:     834313
L1D RFO       ACCESS:    6597137  HIT:    5638582  MISS:     958555
L1D PREFETCH  ACCESS:          0  HIT:          0  MISS:          0
L1D WRITEBACK ACCESS:          0  HIT:          0  MISS:          0
L1D PREFETCH  REQUESTED:          0  ISSUED:          0  USEFUL:          0  USELESS:          0
L1D AVERAGE MISS LATENCY: 227.582 cycles
L1I TOTAL     ACCESS:    5121672  HIT:    3189939  MISS:    1931733
L1I LOAD      ACCESS:    5121672  HIT:    3189939  MISS:    1931733
L1I RFO       ACCESS:          0  HIT:          0  MISS:          0
L1I PREFETCH  ACCESS:          0  HIT:          0  MISS:          0
L1I WRITEBACK ACCESS:          0  HIT:          0  MISS:          0
L1I PREFETCH  REQUESTED:          0  ISSUED:          0  USEFUL:          0  USELESS:          0
L1I AVERAGE MISS LATENCY: 8.86147 cycles
L2C TOTAL     ACCESS:    4874035  HIT:    3180545  MISS:    1693490
L2C LOAD      ACCESS:    2766046  HIT:    2002819  MISS:     763227
L2C RFO       ACCESS:     958555  HIT:      31910  MISS:     926645
L2C PREFETCH  ACCESS:          0  HIT:          0  MISS:          0
L2C WRITEBACK ACCESS:    1149434  HIT:    1145816  MISS:       3618
L2C PREFETCH  REQUESTED:          0  ISSUED:          0  USEFUL:          0  USELESS:          0
L2C AVERAGE MISS LATENCY: 237.252 cycles
LLC TOTAL     ACCESS:    2773200  HIT:    1557999  MISS:    1215201
LLC LOAD      ACCESS:     763227  HIT:     327096  MISS:     436131
LLC RFO       ACCESS:     926645  HIT:     149309  MISS:     777336
LLC PREFETCH  ACCESS:          0  HIT:          0  MISS:          0
LLC WRITEBACK ACCESS:    1083328  HIT:    1081594  MISS:       1734
LLC PREFETCH  REQUESTED:          0  ISSUED:          0  USEFUL:          0  USELESS:          0
LLC AVERAGE MISS LATENCY: 315.334 cycles

DRAM Statistics
 CHANNEL 0
 RQ ROW_BUFFER_HIT:     330633  ROW_BUFFER_MISS:     882618
 DBUS_CONGESTED:    1158377
 WQ ROW_BUFFER_HIT:     338715  ROW_BUFFER_MISS:     513185  FULL:          0

 AVG_CONGESTED_CYCLE: 6

CPU 0 Branch Prediction Accuracy: 96.623% MPKI: 5.5857 Average ROB Occupancy at Mispredict: 214.664
Branch type MPKI
BRANCH_DIRECT_JUMP: 0.00032
BRANCH_INDIRECT: 0.00354
BRANCH_CONDITIONAL: 5.57178
BRANCH_DIRECT_CALL: 0.0005
BRANCH_INDIRECT_CALL: 0.0093
BRANCH_RETURN: 0.00026

