
VirtualMemory physical capacity: 8589934592 num_ppages: 2097152
VirtualMemory page size: 4096 log2_page_size: 12
VirtualMemory initalizing ppage free list ... done
VirtualMemory shuffling ppage free list ... done


*** ChampSim Multicore Out-of-Order Simulator ***

Warmup Instructions: 50000000
Simulation Instructions: 50000000
Number of CPUs: 1
LLC sets: 2048
LLC ways: 16
Off-chip DRAM Size: 4096 MB Channels: 1 Width: 64-bit Data Rate: 3200 MT/s

CPU 0 runs ipc1_public/server_019.champsimtrace.xz
CPU 0 Bimodal branch predictor
Basic BTB sets: 1024 ways: 8 indirect buffer size: 4096 RAS size: 64
Heartbeat CPU 0 instructions: 10000002 cycles: 3112762 heartbeat IPC: 3.21258 cumulative IPC: 3.21258 (Simulation time: 0 hr 13 min 55 sec) 
Heartbeat CPU 0 instructions: 20000003 cycles: 6225770 heartbeat IPC: 3.21233 cumulative IPC: 3.21245 (Simulation time: 0 hr 22 min 42 sec) 
Heartbeat CPU 0 instructions: 30000000 cycles: 9337138 heartbeat IPC: 3.21402 cumulative IPC: 3.21298 (Simulation time: 0 hr 30 min 59 sec) 
Heartbeat CPU 0 instructions: 40000003 cycles: 12447208 heartbeat IPC: 3.21536 cumulative IPC: 3.21357 (Simulation time: 0 hr 39 min 9 sec) 
Heartbeat CPU 0 instructions: 50000003 cycles: 15559098 heartbeat IPC: 3.21348 cumulative IPC: 3.21355 (Simulation time: 0 hr 46 min 59 sec) 

Warmup complete CPU 0 instructions: 50000003 cycles: 15559098 (Simulation time: 0 hr 46 min 59 sec) 

Heartbeat CPU 0 instructions: 60000000 cycles: 40796261 heartbeat IPC: 0.396241 cumulative IPC: 0.396241 (Simulation time: 1 hr 8 min 33 sec) 
Heartbeat CPU 0 instructions: 70000003 cycles: 66059586 heartbeat IPC: 0.395831 cumulative IPC: 0.396036 (Simulation time: 1 hr 14 min 27 sec) 
Heartbeat CPU 0 instructions: 80000003 cycles: 90191882 heartbeat IPC: 0.414382 cumulative IPC: 0.401968 (Simulation time: 1 hr 16 min 47 sec) 
Heartbeat CPU 0 instructions: 90000000 cycles: 113143497 heartbeat IPC: 0.435699 cumulative IPC: 0.409902 (Simulation time: 1 hr 19 min 56 sec) 
Heartbeat CPU 0 instructions: 100000001 cycles: 135994463 heartbeat IPC: 0.437618 cumulative IPC: 0.41516 (Simulation time: 1 hr 22 min 45 sec) 
Finished CPU 0 instructions: 50000000 cycles: 120435367 cumulative IPC: 0.41516 (Simulation time: 1 hr 22 min 45 sec) 

ChampSim completed all CPUs

Region of Interest Statistics

CPU 0 cumulative IPC: 0.41516 instructions: 50000000 cycles: 120435367
L1D TOTAL     ACCESS:   13623145  HIT:   11834349  MISS:    1788796
L1D LOAD      ACCESS:    7402933  HIT:    6527586  MISS:     875347
L1D RFO       ACCESS:    6220212  HIT:    5306763  MISS:     913449
L1D PREFETCH  ACCESS:          0  HIT:          0  MISS:          0
L1D WRITEBACK ACCESS:          0  HIT:          0  MISS:          0
L1D PREFETCH  REQUESTED:          0  ISSUED:          0  USEFUL:          0  USELESS:          0
L1D AVERAGE MISS LATENCY: 240.947 cycles
L1I TOTAL     ACCESS:    4527260  HIT:    2372066  MISS:    2155194
L1I LOAD      ACCESS:    4527260  HIT:    2372066  MISS:    2155194
L1I RFO       ACCESS:          0  HIT:          0  MISS:          0
L1I PREFETCH  ACCESS:          0  HIT:          0  MISS:          0
L1I WRITEBACK ACCESS:          0  HIT:          0  MISS:          0
L1I PREFETCH  REQUESTED:          0  ISSUED:          0  USEFUL:          0  USELESS:          0
L1I AVERAGE MISS LATENCY: 9.02087 cycles
L2C TOTAL     ACCESS:    5105731  HIT:    3427057  MISS:    1678674
L2C LOAD      ACCESS:    3030540  HIT:    2241816  MISS:     788724
L2C RFO       ACCESS:     913448  HIT:      25691  MISS:     887757
L2C PREFETCH  ACCESS:          0  HIT:          0  MISS:          0
L2C WRITEBACK ACCESS:    1161743  HIT:    1159550  MISS:       2193
L2C PREFETCH  REQUESTED:          0  ISSUED:          0  USEFUL:          0  USELESS:          0
L2C AVERAGE MISS LATENCY: 253.599 cycles
LLC TOTAL     ACCESS:    2776826  HIT:    1504984  MISS:    1271842
LLC LOAD      ACCESS:     788724  HIT:     274549  MISS:     514175
LLC RFO       ACCESS:     887757  HIT:     131561  MISS:     756196
LLC PREFETCH  ACCESS:          0  HIT:          0  MISS:          0
LLC WRITEBACK ACCESS:    1100345  HIT:    1098874  MISS:       1471
LLC PREFETCH  REQUESTED:          0  ISSUED:          0  USEFUL:          0  USELESS:          0
LLC AVERAGE MISS LATENCY: 320.218 cycles

DRAM Statistics
 CHANNEL 0
 RQ ROW_BUFFER_HIT:     313520  ROW_BUFFER_MISS:     956617
 DBUS_CONGESTED:    1203315
 WQ ROW_BUFFER_HIT:     367003  ROW_BUFFER_MISS:     531543  FULL:          0

 AVG_CONGESTED_CYCLE: 6

CPU 0 Branch Prediction Accuracy: 95.162% MPKI: 8.185 Average ROB Occupancy at Mispredict: 215.928
Branch type MPKI
BRANCH_DIRECT_JUMP: 0.0028
BRANCH_INDIRECT: 0.00422
BRANCH_CONDITIONAL: 8.16006
BRANCH_DIRECT_CALL: 0.0072
BRANCH_INDIRECT_CALL: 0.01072
BRANCH_RETURN: 0

