
VirtualMemory physical capacity: 8589934592 num_ppages: 2097152
VirtualMemory page size: 4096 log2_page_size: 12
VirtualMemory initalizing ppage free list ... done
VirtualMemory shuffling ppage free list ... done


*** ChampSim Multicore Out-of-Order Simulator ***

Warmup Instructions: 50000000
Simulation Instructions: 50000000
Number of CPUs: 1
LLC sets: 2048
LLC ways: 16
Off-chip DRAM Size: 4096 MB Channels: 1 Width: 64-bit Data Rate: 3200 MT/s

CPU 0 runs ipc1_public/server_029.champsimtrace.xz
CPU 0 Bimodal branch predictor
Basic BTB sets: 1024 ways: 8 indirect buffer size: 4096 RAS size: 64
CPU 0 L1I next line prefetcher
Heartbeat CPU 0 instructions: 10000000 cycles: 2566130 heartbeat IPC: 3.89692 cumulative IPC: 3.89692 (Simulation time: 0 hr 6 min 31 sec) 
Heartbeat CPU 0 instructions: 20000003 cycles: 5126575 heartbeat IPC: 3.90557 cumulative IPC: 3.90124 (Simulation time: 0 hr 12 min 38 sec) 
Heartbeat CPU 0 instructions: 30000001 cycles: 7683022 heartbeat IPC: 3.91168 cumulative IPC: 3.90471 (Simulation time: 0 hr 20 min 5 sec) 
Heartbeat CPU 0 instructions: 40000001 cycles: 10238110 heartbeat IPC: 3.91376 cumulative IPC: 3.90697 (Simulation time: 0 hr 26 min 58 sec) 
Heartbeat CPU 0 instructions: 50000003 cycles: 12800299 heartbeat IPC: 3.90291 cumulative IPC: 3.90616 (Simulation time: 0 hr 36 min 55 sec) 

Warmup complete CPU 0 instructions: 50000003 cycles: 12800299 (Simulation time: 0 hr 36 min 55 sec) 

Heartbeat CPU 0 instructions: 60000001 cycles: 18688793 heartbeat IPC: 1.69823 cumulative IPC: 1.69823 (Simulation time: 0 hr 50 min 47 sec) 
Heartbeat CPU 0 instructions: 70000000 cycles: 24690157 heartbeat IPC: 1.66629 cumulative IPC: 1.68211 (Simulation time: 1 hr 3 min 12 sec) 
Heartbeat CPU 0 instructions: 80000002 cycles: 30552582 heartbeat IPC: 1.70578 cumulative IPC: 1.68992 (Simulation time: 1 hr 16 min 18 sec) 
*** Reached end of trace: ipc1_public/server_029.champsimtrace.xz
Heartbeat CPU 0 instructions: 90000004 cycles: 36398093 heartbeat IPC: 1.71071 cumulative IPC: 1.69507 (Simulation time: 1 hr 30 min 46 sec) 
Heartbeat CPU 0 instructions: 100000004 cycles: 42194556 heartbeat IPC: 1.72519 cumulative IPC: 1.70101 (Simulation time: 1 hr 43 min 2 sec) 
Finished CPU 0 instructions: 50000001 cycles: 29394257 cumulative IPC: 1.70101 (Simulation time: 1 hr 43 min 2 sec) 

ChampSim completed all CPUs

Region of Interest Statistics

CPU 0 cumulative IPC: 1.70101 instructions: 50000001 cycles: 29394257
L1D TOTAL     ACCESS:   13895134  HIT:   12432553  MISS:    1462581
L1D LOAD      ACCESS:    7642774  HIT:    6489709  MISS:    1153065
L1D RFO       ACCESS:    6252360  HIT:    5942844  MISS:     309516
L1D PREFETCH  ACCESS:          0  HIT:          0  MISS:          0
L1D WRITEBACK ACCESS:          0  HIT:          0  MISS:          0
L1D PREFETCH  REQUESTED:          0  ISSUED:          0  USEFUL:          0  USELESS:          0
L1D AVERAGE MISS LATENCY: 13.0028 cycles
L1I TOTAL     ACCESS:   11925000  HIT:    7579020  MISS:    4345980
L1I LOAD      ACCESS:    6062322  HIT:    5940424  MISS:     121898
L1I RFO       ACCESS:          0  HIT:          0  MISS:          0
L1I PREFETCH  ACCESS:    5862678  HIT:    1638596  MISS:    4224082
L1I WRITEBACK ACCESS:          0  HIT:          0  MISS:          0
L1I PREFETCH  REQUESTED:    6032550  ISSUED:    6032198  USEFUL:    3029780  USELESS:    1194340
L1I AVERAGE MISS LATENCY: 8.12188 cycles
L2C TOTAL     ACCESS:    6401966  HIT:    5622055  MISS:     779911
L2C LOAD      ACCESS:    1248668  HIT:    1017792  MISS:     230876
L2C RFO       ACCESS:     309516  HIT:     227952  MISS:      81564
L2C PREFETCH  ACCESS:    4250377  HIT:    3796642  MISS:     453735
L2C WRITEBACK ACCESS:     593405  HIT:     579669  MISS:      13736
L2C PREFETCH  REQUESTED:          0  ISSUED:          0  USEFUL:     177365  USELESS:     276635
L2C AVERAGE MISS LATENCY: 18.2818 cycles
LLC TOTAL     ACCESS:     895200  HIT:     860959  MISS:      34241
LLC LOAD      ACCESS:     230876  HIT:     201517  MISS:      29359
LLC RFO       ACCESS:      81564  HIT:      78138  MISS:       3426
LLC PREFETCH  ACCESS:     453735  HIT:     452557  MISS:       1178
LLC WRITEBACK ACCESS:     129025  HIT:     128747  MISS:        278
LLC PREFETCH  REQUESTED:          0  ISSUED:          0  USEFUL:        327  USELESS:        440
LLC AVERAGE MISS LATENCY: 170.266 cycles
I-Shadow cache 408 bytes
Touched + WorthPF tables 6144 bytes 
MMA filter 174 bytes 
FNL filter 272 bytes 
TOTAL PREFETCHER STORAGE SIZE: 25174 bytes
CPU 0 L1I next line prefetcher final stats

DRAM Statistics
 CHANNEL 0
 RQ ROW_BUFFER_HIT:       8572  ROW_BUFFER_MISS:      25383
 DBUS_CONGESTED:       7073
 WQ ROW_BUFFER_HIT:        285  ROW_BUFFER_MISS:       3079  FULL:          0

 AVG_CONGESTED_CYCLE: 6

CPU 0 Branch Prediction Accuracy: 95.2837% MPKI: 8.87902 Average ROB Occupancy at Mispredict: 154.037
Branch type MPKI
BRANCH_DIRECT_JUMP: 0.00686
BRANCH_INDIRECT: 0.3223
BRANCH_CONDITIONAL: 8.02668
BRANCH_DIRECT_CALL: 0.01022
BRANCH_INDIRECT_CALL: 0.4202
BRANCH_RETURN: 0.09276

