
VirtualMemory physical capacity: 8589934592 num_ppages: 2097152
VirtualMemory page size: 4096 log2_page_size: 12
VirtualMemory initalizing ppage free list ... done
VirtualMemory shuffling ppage free list ... done


*** ChampSim Multicore Out-of-Order Simulator ***

Warmup Instructions: 50000000
Simulation Instructions: 50000000
Number of CPUs: 1
LLC sets: 2048
LLC ways: 16
Off-chip DRAM Size: 4096 MB Channels: 1 Width: 64-bit Data Rate: 3200 MT/s

CPU 0 runs ipc1_public/server_011.champsimtrace.xz
CPU 0 Bimodal branch predictor
Basic BTB sets: 1024 ways: 8 indirect buffer size: 4096 RAS size: 64
CPU 0 L1I next line prefetcher
Heartbeat CPU 0 instructions: 10000004 cycles: 2627783 heartbeat IPC: 3.80549 cumulative IPC: 3.80549 (Simulation time: 0 hr 12 min 50 sec) 
Heartbeat CPU 0 instructions: 20000000 cycles: 5241053 heartbeat IPC: 3.82662 cumulative IPC: 3.81603 (Simulation time: 0 hr 21 min 38 sec) 
Heartbeat CPU 0 instructions: 30000002 cycles: 7862835 heartbeat IPC: 3.8142 cumulative IPC: 3.81542 (Simulation time: 0 hr 31 min 35 sec) 
Heartbeat CPU 0 instructions: 40000000 cycles: 10480786 heartbeat IPC: 3.81978 cumulative IPC: 3.81651 (Simulation time: 0 hr 41 min 48 sec) 
Heartbeat CPU 0 instructions: 50000001 cycles: 13094997 heartbeat IPC: 3.82525 cumulative IPC: 3.81825 (Simulation time: 0 hr 51 min 26 sec) 

Warmup complete CPU 0 instructions: 50000001 cycles: 13094997 (Simulation time: 0 hr 51 min 26 sec) 

Heartbeat CPU 0 instructions: 60000002 cycles: 18753665 heartbeat IPC: 1.7672 cumulative IPC: 1.7672 (Simulation time: 1 hr 3 min 50 sec) 
Heartbeat CPU 0 instructions: 70000001 cycles: 24887934 heartbeat IPC: 1.63019 cumulative IPC: 1.69593 (Simulation time: 1 hr 15 min 13 sec) 
Heartbeat CPU 0 instructions: 80000000 cycles: 31808867 heartbeat IPC: 1.44489 cumulative IPC: 1.60309 (Simulation time: 1 hr 25 min 5 sec) 
Heartbeat CPU 0 instructions: 90000002 cycles: 37477927 heartbeat IPC: 1.76396 cumulative IPC: 1.64049 (Simulation time: 1 hr 36 min 5 sec) 
Heartbeat CPU 0 instructions: 100000002 cycles: 43079427 heartbeat IPC: 1.78524 cumulative IPC: 1.66753 (Simulation time: 1 hr 46 min 11 sec) 
Finished CPU 0 instructions: 50000001 cycles: 29984430 cumulative IPC: 1.66753 (Simulation time: 1 hr 46 min 11 sec) 

ChampSim completed all CPUs

Region of Interest Statistics

CPU 0 cumulative IPC: 1.66753 instructions: 50000001 cycles: 29984430
L1D TOTAL     ACCESS:   12429834  HIT:   11797097  MISS:     632737
L1D LOAD      ACCESS:    7524531  HIT:    6982214  MISS:     542317
L1D RFO       ACCESS:    4905303  HIT:    4814883  MISS:      90420
L1D PREFETCH  ACCESS:          0  HIT:          0  MISS:          0
L1D WRITEBACK ACCESS:          0  HIT:          0  MISS:          0
L1D PREFETCH  REQUESTED:          0  ISSUED:          0  USEFUL:          0  USELESS:          0
L1D AVERAGE MISS LATENCY: 32.9474 cycles
L1I TOTAL     ACCESS:    7779439  HIT:    5820614  MISS:    1958825
L1I LOAD      ACCESS:    4995370  HIT:    4673138  MISS:     322232
L1I RFO       ACCESS:          0  HIT:          0  MISS:          0
L1I PREFETCH  ACCESS:    2784069  HIT:    1147476  MISS:    1636593
L1I WRITEBACK ACCESS:          0  HIT:          0  MISS:          0
L1I PREFETCH  REQUESTED:    2963150  ISSUED:    2962871  USEFUL:    1042169  USELESS:     594417
L1I AVERAGE MISS LATENCY: 13.0864 cycles
L2C TOTAL     ACCESS:    2840543  HIT:    1817581  MISS:    1022962
L2C LOAD      ACCESS:     776124  HIT:     398517  MISS:     377607
L2C RFO       ACCESS:      90419  HIT:      35433  MISS:      54986
L2C PREFETCH  ACCESS:    1725015  HIT:    1138482  MISS:     586533
L2C WRITEBACK ACCESS:     248985  HIT:     245149  MISS:       3836
L2C PREFETCH  REQUESTED:          0  ISSUED:          0  USEFUL:     244527  USELESS:     341967
L2C AVERAGE MISS LATENCY: 29.9409 cycles
LLC TOTAL     ACCESS:    1168023  HIT:    1064093  MISS:     103930
LLC LOAD      ACCESS:     377607  HIT:     316346  MISS:      61261
LLC RFO       ACCESS:      54985  HIT:      37697  MISS:      17288
LLC PREFETCH  ACCESS:     586533  HIT:     561254  MISS:      25279
LLC WRITEBACK ACCESS:     148898  HIT:     148796  MISS:        102
LLC PREFETCH  REQUESTED:          0  ISSUED:          0  USEFUL:      14285  USELESS:      10713
LLC AVERAGE MISS LATENCY: 186.795 cycles
I-Shadow cache 408 bytes
Touched + WorthPF tables 6144 bytes 
MMA filter 174 bytes 
FNL filter 272 bytes 
TOTAL PREFETCHER STORAGE SIZE: 25174 bytes
CPU 0 L1I next line prefetcher final stats

DRAM Statistics
 CHANNEL 0
 RQ ROW_BUFFER_HIT:      13071  ROW_BUFFER_MISS:      90750
 DBUS_CONGESTED:      51066
 WQ ROW_BUFFER_HIT:      13128  ROW_BUFFER_MISS:      42034  FULL:          0

 AVG_CONGESTED_CYCLE: 6

CPU 0 Branch Prediction Accuracy: 93.6807% MPKI: 11.8707 Average ROB Occupancy at Mispredict: 123.12
Branch type MPKI
BRANCH_DIRECT_JUMP: 0.25862
BRANCH_INDIRECT: 0.4927
BRANCH_CONDITIONAL: 8.64134
BRANCH_DIRECT_CALL: 0.47544
BRANCH_INDIRECT_CALL: 0.75052
BRANCH_RETURN: 1.2521

