
VirtualMemory physical capacity: 8589934592 num_ppages: 2097152
VirtualMemory page size: 4096 log2_page_size: 12
VirtualMemory initalizing ppage free list ... done
VirtualMemory shuffling ppage free list ... done


*** ChampSim Multicore Out-of-Order Simulator ***

Warmup Instructions: 50000000
Simulation Instructions: 50000000
Number of CPUs: 1
LLC sets: 2048
LLC ways: 16
Off-chip DRAM Size: 4096 MB Channels: 1 Width: 64-bit Data Rate: 3200 MT/s

CPU 0 runs ipc1_public/server_039.champsimtrace.xz
CPU 0 Bimodal branch predictor
Basic BTB sets: 1024 ways: 8 indirect buffer size: 4096 RAS size: 64
LHT KB: 31.56
SCC KB: 1.56
Total KB: 33.12
Heartbeat CPU 0 instructions: 10000001 cycles: 3087103 heartbeat IPC: 3.23928 cumulative IPC: 3.23928 (Simulation time: 0 hr 17 min 0 sec) 
Heartbeat CPU 0 instructions: 20000001 cycles: 6169476 heartbeat IPC: 3.24425 cumulative IPC: 3.24177 (Simulation time: 0 hr 31 min 13 sec) 
Heartbeat CPU 0 instructions: 30000000 cycles: 9253497 heartbeat IPC: 3.24252 cumulative IPC: 3.24202 (Simulation time: 0 hr 46 min 13 sec) 
Heartbeat CPU 0 instructions: 40000002 cycles: 12340275 heartbeat IPC: 3.23962 cumulative IPC: 3.24142 (Simulation time: 1 hr 3 min 28 sec) 
Heartbeat CPU 0 instructions: 50000000 cycles: 15428222 heartbeat IPC: 3.2384 cumulative IPC: 3.24081 (Simulation time: 1 hr 18 min 11 sec) 

Warmup complete CPU 0 instructions: 50000005 cycles: 15428223 (Simulation time: 1 hr 18 min 11 sec) 

Heartbeat CPU 0 instructions: 60000001 cycles: 20717694 heartbeat IPC: 1.89055 cumulative IPC: 1.89055 (Simulation time: 1 hr 34 min 21 sec) 
Heartbeat CPU 0 instructions: 70000000 cycles: 26007417 heartbeat IPC: 1.89046 cumulative IPC: 1.8905 (Simulation time: 1 hr 49 min 1 sec) 
Heartbeat CPU 0 instructions: 80000000 cycles: 31297742 heartbeat IPC: 1.89024 cumulative IPC: 1.89042 (Simulation time: 2 hr 3 min 10 sec) 
Heartbeat CPU 0 instructions: 90000000 cycles: 36633372 heartbeat IPC: 1.87419 cumulative IPC: 1.88633 (Simulation time: 2 hr 15 min 42 sec) 
Heartbeat CPU 0 instructions: 100000004 cycles: 41968760 heartbeat IPC: 1.87428 cumulative IPC: 1.88391 (Simulation time: 2 hr 21 min 29 sec) 
Finished CPU 0 instructions: 50000004 cycles: 26540538 cumulative IPC: 1.88391 (Simulation time: 2 hr 21 min 29 sec) 

ChampSim completed all CPUs

Region of Interest Statistics

CPU 0 cumulative IPC: 1.88391 instructions: 50000004 cycles: 26540538
L1D TOTAL     ACCESS:   14946685  HIT:   14895632  MISS:      51053
L1D LOAD      ACCESS:    7577885  HIT:    7535085  MISS:      42800
L1D RFO       ACCESS:    7368800  HIT:    7360547  MISS:       8253
L1D PREFETCH  ACCESS:          0  HIT:          0  MISS:          0
L1D WRITEBACK ACCESS:          0  HIT:          0  MISS:          0
L1D PREFETCH  REQUESTED:          0  ISSUED:          0  USEFUL:          0  USELESS:          0
L1D AVERAGE MISS LATENCY: 6.86112 cycles
L1I TOTAL     ACCESS:   24390333  HIT:    9856859  MISS:   14533474
L1I LOAD      ACCESS:    6666966  HIT:    2588750  MISS:    4078216
L1I RFO       ACCESS:          0  HIT:          0  MISS:          0
L1I PREFETCH  ACCESS:   17723367  HIT:    7268109  MISS:   10455258
L1I WRITEBACK ACCESS:          0  HIT:          0  MISS:          0
L1I PREFETCH  REQUESTED:   20435593  ISSUED:   20435593  USEFUL:          0  USELESS:          0
L1I AVERAGE MISS LATENCY: 6.86539 cycles
L2C TOTAL     ACCESS:   14607609  HIT:   14607602  MISS:          7
L2C LOAD      ACCESS:    3630420  HIT:    3630420  MISS:          0
L2C RFO       ACCESS:       8253  HIT:       8252  MISS:          1
L2C PREFETCH  ACCESS:   10945856  HIT:   10945851  MISS:          5
L2C WRITEBACK ACCESS:      23080  HIT:      23079  MISS:          1
L2C PREFETCH  REQUESTED:          0  ISSUED:          0  USEFUL:         13  USELESS:          1
L2C AVERAGE MISS LATENCY: 162 cycles
LLC TOTAL     ACCESS:          6  HIT:          0  MISS:          6
LLC LOAD      ACCESS:          0  HIT:          0  MISS:          0
LLC RFO       ACCESS:          1  HIT:          0  MISS:          1
LLC PREFETCH  ACCESS:          5  HIT:          0  MISS:          5
LLC WRITEBACK ACCESS:          0  HIT:          0  MISS:          0
LLC PREFETCH  REQUESTED:          0  ISSUED:          0  USEFUL:          0  USELESS:          0
LLC AVERAGE MISS LATENCY: 178 cycles

DRAM Statistics
 CHANNEL 0
 RQ ROW_BUFFER_HIT:          0  ROW_BUFFER_MISS:          6
 DBUS_CONGESTED:          3
 WQ ROW_BUFFER_HIT:          0  ROW_BUFFER_MISS:          0  FULL:          0

 AVG_CONGESTED_CYCLE: 7

CPU 0 Branch Prediction Accuracy: 96.7837% MPKI: 5.47086 Average ROB Occupancy at Mispredict: 156.079
Branch type MPKI
BRANCH_DIRECT_JUMP: 2e-05
BRANCH_INDIRECT: 0
BRANCH_CONDITIONAL: 5.405
BRANCH_DIRECT_CALL: 4e-05
BRANCH_INDIRECT_CALL: 8e-05
BRANCH_RETURN: 0.06572

