
VirtualMemory physical capacity: 8589934592 num_ppages: 2097152
VirtualMemory page size: 4096 log2_page_size: 12
VirtualMemory initalizing ppage free list ... done
VirtualMemory shuffling ppage free list ... done


*** ChampSim Multicore Out-of-Order Simulator ***

Warmup Instructions: 50000000
Simulation Instructions: 50000000
Number of CPUs: 1
LLC sets: 2048
LLC ways: 16
Off-chip DRAM Size: 4096 MB Channels: 1 Width: 64-bit Data Rate: 3200 MT/s

CPU 0 runs ipc1_public/server_021.champsimtrace.xz
CPU 0 Bimodal branch predictor
Basic BTB sets: 1024 ways: 8 indirect buffer size: 4096 RAS size: 64
CPU 0 Temporal Ancestry L1I prefetcher
Heartbeat CPU 0 instructions: 10000004 cycles: 2978734 heartbeat IPC: 3.35713 cumulative IPC: 3.35713 (Simulation time: 0 hr 31 min 17 sec) 
Heartbeat CPU 0 instructions: 20000003 cycles: 5946699 heartbeat IPC: 3.36931 cumulative IPC: 3.36321 (Simulation time: 0 hr 59 min 59 sec) 
Heartbeat CPU 0 instructions: 30000000 cycles: 8911919 heartbeat IPC: 3.37243 cumulative IPC: 3.36628 (Simulation time: 1 hr 24 min 37 sec) 
Heartbeat CPU 0 instructions: 40000001 cycles: 11876307 heartbeat IPC: 3.37338 cumulative IPC: 3.36805 (Simulation time: 1 hr 47 min 14 sec) 
Heartbeat CPU 0 instructions: 50000002 cycles: 14835575 heartbeat IPC: 3.37921 cumulative IPC: 3.37028 (Simulation time: 2 hr 9 min 3 sec) 

Warmup complete CPU 0 instructions: 50000002 cycles: 14835575 (Simulation time: 2 hr 9 min 3 sec) 

Heartbeat CPU 0 instructions: 60000001 cycles: 36951400 heartbeat IPC: 0.452165 cumulative IPC: 0.452165 (Simulation time: 2 hr 38 min 46 sec) 
Heartbeat CPU 0 instructions: 70000001 cycles: 59659406 heartbeat IPC: 0.440373 cumulative IPC: 0.446191 (Simulation time: 2 hr 59 min 38 sec) 
Heartbeat CPU 0 instructions: 80000003 cycles: 81937937 heartbeat IPC: 0.448863 cumulative IPC: 0.447078 (Simulation time: 3 hr 7 min 42 sec) 
Heartbeat CPU 0 instructions: 90000002 cycles: 104637700 heartbeat IPC: 0.440533 cumulative IPC: 0.445424 (Simulation time: 3 hr 12 min 51 sec) 
Heartbeat CPU 0 instructions: 100000004 cycles: 126876056 heartbeat IPC: 0.449674 cumulative IPC: 0.446267 (Simulation time: 3 hr 17 min 42 sec) 
Finished CPU 0 instructions: 50000002 cycles: 112040481 cumulative IPC: 0.446267 (Simulation time: 3 hr 17 min 42 sec) 

ChampSim completed all CPUs

Region of Interest Statistics

CPU 0 cumulative IPC: 0.446267 instructions: 50000002 cycles: 112040481
L1D TOTAL     ACCESS:   14147843  HIT:   12333626  MISS:    1814217
L1D LOAD      ACCESS:    7475879  HIT:    6650488  MISS:     825391
L1D RFO       ACCESS:    6671964  HIT:    5683138  MISS:     988826
L1D PREFETCH  ACCESS:          0  HIT:          0  MISS:          0
L1D WRITEBACK ACCESS:          0  HIT:          0  MISS:          0
L1D PREFETCH  REQUESTED:          0  ISSUED:          0  USEFUL:          0  USELESS:          0
L1D AVERAGE MISS LATENCY: 230.595 cycles
L1I TOTAL     ACCESS:   20870415  HIT:   13720835  MISS:    7149580
L1I LOAD      ACCESS:    5565527  HIT:    4999109  MISS:     566418
L1I RFO       ACCESS:          0  HIT:          0  MISS:          0
L1I PREFETCH  ACCESS:   15304888  HIT:    8721726  MISS:    6583162
L1I WRITEBACK ACCESS:          0  HIT:          0  MISS:          0
L1I PREFETCH  REQUESTED:   27469666  ISSUED:   23957538  USEFUL:    4062070  USELESS:    2521048
L1I AVERAGE MISS LATENCY: 7.60574 cycles
L2C TOTAL     ACCESS:   10130833  HIT:    8401147  MISS:    1729686
L2C LOAD      ACCESS:    1214567  HIT:     568717  MISS:     645850
L2C RFO       ACCESS:     988826  HIT:      26278  MISS:     962548
L2C PREFETCH  ACCESS:    6760402  HIT:    6642458  MISS:     117944
L2C WRITEBACK ACCESS:    1167038  HIT:    1163694  MISS:       3344
L2C PREFETCH  REQUESTED:          0  ISSUED:          0  USEFUL:      85548  USELESS:      32365
L2C AVERAGE MISS LATENCY: 239.729 cycles
LLC TOTAL     ACCESS:    2834306  HIT:    1617316  MISS:    1216990
LLC LOAD      ACCESS:     645849  HIT:     242847  MISS:     403002
LLC RFO       ACCESS:     962548  HIT:     166278  MISS:     796270
LLC PREFETCH  ACCESS:     117944  HIT:     101714  MISS:      16230
LLC WRITEBACK ACCESS:    1107965  HIT:    1106477  MISS:       1488
LLC PREFETCH  REQUESTED:          0  ISSUED:          0  USEFUL:       8394  USELESS:       7311
LLC AVERAGE MISS LATENCY: 325.116 cycles

DRAM Statistics
 CHANNEL 0
 RQ ROW_BUFFER_HIT:     334561  ROW_BUFFER_MISS:     880684
 DBUS_CONGESTED:    1167466
 WQ ROW_BUFFER_HIT:     339234  ROW_BUFFER_MISS:     517656  FULL:          0

 AVG_CONGESTED_CYCLE: 6

CPU 0 Branch Prediction Accuracy: 97.1728% MPKI: 4.63732 Average ROB Occupancy at Mispredict: 224.11
Branch type MPKI
BRANCH_DIRECT_JUMP: 0.00032
BRANCH_INDIRECT: 0.00372
BRANCH_CONDITIONAL: 4.62282
BRANCH_DIRECT_CALL: 0.00062
BRANCH_INDIRECT_CALL: 0.0097
BRANCH_RETURN: 0.00014

