
VirtualMemory physical capacity: 8589934592 num_ppages: 2097152
VirtualMemory page size: 4096 log2_page_size: 12
VirtualMemory initalizing ppage free list ... done
VirtualMemory shuffling ppage free list ... done


*** ChampSim Multicore Out-of-Order Simulator ***

Warmup Instructions: 50000000
Simulation Instructions: 50000000
Number of CPUs: 1
LLC sets: 2048
LLC ways: 16
Off-chip DRAM Size: 4096 MB Channels: 1 Width: 64-bit Data Rate: 3200 MT/s

CPU 0 runs ipc1_public/server_030.champsimtrace.xz
CPU 0 Bimodal branch predictor
Basic BTB sets: 1024 ways: 8 indirect buffer size: 4096 RAS size: 64
CPU 0 L1I next line prefetcher
Heartbeat CPU 0 instructions: 10000000 cycles: 2571331 heartbeat IPC: 3.88904 cumulative IPC: 3.88904 (Simulation time: 0 hr 12 min 37 sec) 
Heartbeat CPU 0 instructions: 20000001 cycles: 5138519 heartbeat IPC: 3.89531 cumulative IPC: 3.89217 (Simulation time: 0 hr 25 min 39 sec) 
Heartbeat CPU 0 instructions: 30000002 cycles: 7703722 heartbeat IPC: 3.89833 cumulative IPC: 3.89422 (Simulation time: 0 hr 39 min 31 sec) 
Heartbeat CPU 0 instructions: 40000003 cycles: 10262499 heartbeat IPC: 3.90812 cumulative IPC: 3.89769 (Simulation time: 0 hr 52 min 28 sec) 
Heartbeat CPU 0 instructions: 50000003 cycles: 12828858 heartbeat IPC: 3.89657 cumulative IPC: 3.89746 (Simulation time: 1 hr 3 min 57 sec) 

Warmup complete CPU 0 instructions: 50000003 cycles: 12828858 (Simulation time: 1 hr 3 min 57 sec) 

Heartbeat CPU 0 instructions: 60000002 cycles: 18370885 heartbeat IPC: 1.80439 cumulative IPC: 1.80439 (Simulation time: 1 hr 11 min 32 sec) 
Heartbeat CPU 0 instructions: 70000001 cycles: 23930018 heartbeat IPC: 1.79884 cumulative IPC: 1.80161 (Simulation time: 1 hr 17 min 53 sec) 
Heartbeat CPU 0 instructions: 80000000 cycles: 29434437 heartbeat IPC: 1.81672 cumulative IPC: 1.80662 (Simulation time: 1 hr 26 min 25 sec) 
*** Reached end of trace: ipc1_public/server_030.champsimtrace.xz
Heartbeat CPU 0 instructions: 90000003 cycles: 34969342 heartbeat IPC: 1.80672 cumulative IPC: 1.80665 (Simulation time: 1 hr 34 min 46 sec) 
Heartbeat CPU 0 instructions: 100000003 cycles: 40422040 heartbeat IPC: 1.83395 cumulative IPC: 1.81204 (Simulation time: 1 hr 43 min 42 sec) 
Finished CPU 0 instructions: 50000000 cycles: 27593182 cumulative IPC: 1.81204 (Simulation time: 1 hr 43 min 42 sec) 

ChampSim completed all CPUs

Region of Interest Statistics

CPU 0 cumulative IPC: 1.81204 instructions: 50000000 cycles: 27593182
L1D TOTAL     ACCESS:   14038328  HIT:   12577424  MISS:    1460904
L1D LOAD      ACCESS:    7695318  HIT:    6542126  MISS:    1153192
L1D RFO       ACCESS:    6343010  HIT:    6035298  MISS:     307712
L1D PREFETCH  ACCESS:          0  HIT:          0  MISS:          0
L1D WRITEBACK ACCESS:          0  HIT:          0  MISS:          0
L1D PREFETCH  REQUESTED:          0  ISSUED:          0  USEFUL:          0  USELESS:          0
L1D AVERAGE MISS LATENCY: 9.57177 cycles
L1I TOTAL     ACCESS:   12087023  HIT:    7659947  MISS:    4427076
L1I LOAD      ACCESS:    6114883  HIT:    5939454  MISS:     175429
L1I RFO       ACCESS:          0  HIT:          0  MISS:          0
L1I PREFETCH  ACCESS:    5972140  HIT:    1720493  MISS:    4251647
L1I WRITEBACK ACCESS:          0  HIT:          0  MISS:          0
L1I PREFETCH  REQUESTED:    6167004  ISSUED:    6166717  USEFUL:    3023911  USELESS:    1227724
L1I AVERAGE MISS LATENCY: 7.81711 cycles
L2C TOTAL     ACCESS:    6483480  HIT:    5878477  MISS:     605003
L2C LOAD      ACCESS:    1293677  HIT:    1102135  MISS:     191542
L2C RFO       ACCESS:     307708  HIT:     247451  MISS:      60257
L2C PREFETCH  ACCESS:    4286575  HIT:    3942512  MISS:     344063
L2C WRITEBACK ACCESS:     595520  HIT:     586379  MISS:       9141
L2C PREFETCH  REQUESTED:          0  ISSUED:          0  USEFUL:     147148  USELESS:     196935
L2C AVERAGE MISS LATENCY: 12.967 cycles
LLC TOTAL     ACCESS:     701412  HIT:     692808  MISS:       8604
LLC LOAD      ACCESS:     191542  HIT:     184755  MISS:       6787
LLC RFO       ACCESS:      60255  HIT:      58554  MISS:       1701
LLC PREFETCH  ACCESS:     344063  HIT:     343956  MISS:        107
LLC WRITEBACK ACCESS:     105552  HIT:     105543  MISS:          9
LLC PREFETCH  REQUESTED:          0  ISSUED:          0  USEFUL:         80  USELESS:         74
LLC AVERAGE MISS LATENCY: 149.988 cycles
I-Shadow cache 408 bytes
Touched + WorthPF tables 6144 bytes 
MMA filter 174 bytes 
FNL filter 272 bytes 
TOTAL PREFETCHER STORAGE SIZE: 25174 bytes
CPU 0 L1I next line prefetcher final stats

DRAM Statistics
 CHANNEL 0
 RQ ROW_BUFFER_HIT:       3138  ROW_BUFFER_MISS:       5457
 DBUS_CONGESTED:       1716
 WQ ROW_BUFFER_HIT:         48  ROW_BUFFER_MISS:        744  FULL:          0

 AVG_CONGESTED_CYCLE: 6

CPU 0 Branch Prediction Accuracy: 95.378% MPKI: 8.66334 Average ROB Occupancy at Mispredict: 151.361
Branch type MPKI
BRANCH_DIRECT_JUMP: 0.02916
BRANCH_INDIRECT: 0.3573
BRANCH_CONDITIONAL: 7.70228
BRANCH_DIRECT_CALL: 0.043
BRANCH_INDIRECT_CALL: 0.44646
BRANCH_RETURN: 0.08514

