
VirtualMemory physical capacity: 8589934592 num_ppages: 2097152
VirtualMemory page size: 4096 log2_page_size: 12
VirtualMemory initalizing ppage free list ... done
VirtualMemory shuffling ppage free list ... done


*** ChampSim Multicore Out-of-Order Simulator ***

Warmup Instructions: 50000000
Simulation Instructions: 50000000
Number of CPUs: 1
LLC sets: 2048
LLC ways: 16
Off-chip DRAM Size: 4096 MB Channels: 1 Width: 64-bit Data Rate: 3200 MT/s

CPU 0 runs ipc1_public/server_039.champsimtrace.xz
CPU 0 Bimodal branch predictor
Basic BTB sets: 1024 ways: 8 indirect buffer size: 4096 RAS size: 64
Heartbeat CPU 0 instructions: 10000002 cycles: 3041451 heartbeat IPC: 3.2879 cumulative IPC: 3.2879 (Simulation time: 0 hr 15 min 54 sec) 
Heartbeat CPU 0 instructions: 20000001 cycles: 6084547 heartbeat IPC: 3.28613 cumulative IPC: 3.28702 (Simulation time: 0 hr 31 min 29 sec) 
Heartbeat CPU 0 instructions: 30000000 cycles: 9128655 heartbeat IPC: 3.28503 cumulative IPC: 3.28635 (Simulation time: 0 hr 50 min 53 sec) 
Heartbeat CPU 0 instructions: 40000002 cycles: 12175627 heartbeat IPC: 3.28195 cumulative IPC: 3.28525 (Simulation time: 1 hr 8 min 8 sec) 
Heartbeat CPU 0 instructions: 50000000 cycles: 15222096 heartbeat IPC: 3.28249 cumulative IPC: 3.2847 (Simulation time: 1 hr 25 min 5 sec) 

Warmup complete CPU 0 instructions: 50000005 cycles: 15222097 (Simulation time: 1 hr 25 min 5 sec) 

Heartbeat CPU 0 instructions: 60000001 cycles: 20495756 heartbeat IPC: 1.89622 cumulative IPC: 1.89622 (Simulation time: 1 hr 43 min 56 sec) 
Heartbeat CPU 0 instructions: 70000000 cycles: 25770996 heartbeat IPC: 1.89565 cumulative IPC: 1.89593 (Simulation time: 2 hr 3 min 2 sec) 
Heartbeat CPU 0 instructions: 80000000 cycles: 31047038 heartbeat IPC: 1.89536 cumulative IPC: 1.89574 (Simulation time: 2 hr 22 min 23 sec) 
Heartbeat CPU 0 instructions: 90000000 cycles: 36360458 heartbeat IPC: 1.88203 cumulative IPC: 1.89229 (Simulation time: 2 hr 41 min 11 sec) 
Heartbeat CPU 0 instructions: 100000004 cycles: 41673570 heartbeat IPC: 1.88214 cumulative IPC: 1.89025 (Simulation time: 2 hr 54 min 21 sec) 
Finished CPU 0 instructions: 50000004 cycles: 26451474 cumulative IPC: 1.89025 (Simulation time: 2 hr 54 min 21 sec) 

ChampSim completed all CPUs

Region of Interest Statistics

CPU 0 cumulative IPC: 1.89025 instructions: 50000004 cycles: 26451474
L1D TOTAL     ACCESS:   14932071  HIT:   14881018  MISS:      51053
L1D LOAD      ACCESS:    7563215  HIT:    7520415  MISS:      42800
L1D RFO       ACCESS:    7368856  HIT:    7360603  MISS:       8253
L1D PREFETCH  ACCESS:          0  HIT:          0  MISS:          0
L1D WRITEBACK ACCESS:          0  HIT:          0  MISS:          0
L1D PREFETCH  REQUESTED:          0  ISSUED:          0  USEFUL:          0  USELESS:          0
L1D AVERAGE MISS LATENCY: 6.86255 cycles
L1I TOTAL     ACCESS:    6641968  HIT:    2784749  MISS:    3857219
L1I LOAD      ACCESS:    6641968  HIT:    2784749  MISS:    3857219
L1I RFO       ACCESS:          0  HIT:          0  MISS:          0
L1I PREFETCH  ACCESS:          0  HIT:          0  MISS:          0
L1I WRITEBACK ACCESS:          0  HIT:          0  MISS:          0
L1I PREFETCH  REQUESTED:          0  ISSUED:          0  USEFUL:          0  USELESS:          0
L1I AVERAGE MISS LATENCY: 6.00306 cycles
L2C TOTAL     ACCESS:    3931352  HIT:    3931336  MISS:         16
L2C LOAD      ACCESS:    3900019  HIT:    3900010  MISS:          9
L2C RFO       ACCESS:       8253  HIT:       8251  MISS:          2
L2C PREFETCH  ACCESS:          0  HIT:          0  MISS:          0
L2C WRITEBACK ACCESS:      23080  HIT:      23075  MISS:          5
L2C PREFETCH  REQUESTED:          0  ISSUED:          0  USEFUL:          0  USELESS:          0
L2C AVERAGE MISS LATENCY: 50.3125 cycles
LLC TOTAL     ACCESS:         17  HIT:         13  MISS:          4
LLC LOAD      ACCESS:          9  HIT:          6  MISS:          3
LLC RFO       ACCESS:          2  HIT:          1  MISS:          1
LLC PREFETCH  ACCESS:          0  HIT:          0  MISS:          0
LLC WRITEBACK ACCESS:          6  HIT:          6  MISS:          0
LLC PREFETCH  REQUESTED:          0  ISSUED:          0  USEFUL:          0  USELESS:          0
LLC AVERAGE MISS LATENCY: 171 cycles

DRAM Statistics
 CHANNEL 0
 RQ ROW_BUFFER_HIT:          0  ROW_BUFFER_MISS:          4
 DBUS_CONGESTED:          0
 WQ ROW_BUFFER_HIT:          0  ROW_BUFFER_MISS:          0  FULL:          0

 AVG_CONGESTED_CYCLE: -

CPU 0 Branch Prediction Accuracy: 96.7837% MPKI: 5.47086 Average ROB Occupancy at Mispredict: 158.276
Branch type MPKI
BRANCH_DIRECT_JUMP: 2e-05
BRANCH_INDIRECT: 0
BRANCH_CONDITIONAL: 5.405
BRANCH_DIRECT_CALL: 4e-05
BRANCH_INDIRECT_CALL: 8e-05
BRANCH_RETURN: 0.06572

