
VirtualMemory physical capacity: 8589934592 num_ppages: 2097152
VirtualMemory page size: 4096 log2_page_size: 12
VirtualMemory initalizing ppage free list ... done
VirtualMemory shuffling ppage free list ... done


*** ChampSim Multicore Out-of-Order Simulator ***

Warmup Instructions: 50000000
Simulation Instructions: 50000000
Number of CPUs: 1
LLC sets: 2048
LLC ways: 16
Off-chip DRAM Size: 4096 MB Channels: 1 Width: 64-bit Data Rate: 3200 MT/s

CPU 0 runs ipc1_public/server_014.champsimtrace.xz
CPU 0 Bimodal branch predictor
Basic BTB sets: 1024 ways: 8 indirect buffer size: 4096 RAS size: 64
Heartbeat CPU 0 instructions: 10000002 cycles: 3036085 heartbeat IPC: 3.29372 cumulative IPC: 3.29372 (Simulation time: 0 hr 43 min 42 sec) 
Heartbeat CPU 0 instructions: 20000003 cycles: 6069527 heartbeat IPC: 3.29659 cumulative IPC: 3.29515 (Simulation time: 1 hr 26 min 23 sec) 
Heartbeat CPU 0 instructions: 30000003 cycles: 9116102 heartbeat IPC: 3.28237 cumulative IPC: 3.29088 (Simulation time: 1 hr 54 min 24 sec) 
Heartbeat CPU 0 instructions: 40000001 cycles: 12168564 heartbeat IPC: 3.27604 cumulative IPC: 3.28716 (Simulation time: 2 hr 18 min 10 sec) 
Heartbeat CPU 0 instructions: 50000003 cycles: 15222889 heartbeat IPC: 3.27405 cumulative IPC: 3.28453 (Simulation time: 2 hr 35 min 30 sec) 

Warmup complete CPU 0 instructions: 50000003 cycles: 15222889 (Simulation time: 2 hr 35 min 30 sec) 

Heartbeat CPU 0 instructions: 60000003 cycles: 21181930 heartbeat IPC: 1.67812 cumulative IPC: 1.67812 (Simulation time: 2 hr 49 min 57 sec) 
Heartbeat CPU 0 instructions: 70000000 cycles: 27148065 heartbeat IPC: 1.67613 cumulative IPC: 1.67712 (Simulation time: 2 hr 59 min 53 sec) 
*** Reached end of trace: ipc1_public/server_014.champsimtrace.xz
Heartbeat CPU 0 instructions: 80000001 cycles: 33977787 heartbeat IPC: 1.46419 cumulative IPC: 1.59958 (Simulation time: 3 hr 5 min 18 sec) 
Heartbeat CPU 0 instructions: 90000004 cycles: 41524534 heartbeat IPC: 1.32507 cumulative IPC: 1.52082 (Simulation time: 3 hr 8 min 55 sec) 
Heartbeat CPU 0 instructions: 100000004 cycles: 47611682 heartbeat IPC: 1.64281 cumulative IPC: 1.54374 (Simulation time: 3 hr 18 min 20 sec) 
Finished CPU 0 instructions: 50000001 cycles: 32388793 cumulative IPC: 1.54374 (Simulation time: 3 hr 18 min 20 sec) 

ChampSim completed all CPUs

Region of Interest Statistics

CPU 0 cumulative IPC: 1.54374 instructions: 50000001 cycles: 32388793
L1D TOTAL     ACCESS:   16178320  HIT:   16116849  MISS:      61471
L1D LOAD      ACCESS:    7624070  HIT:    7594828  MISS:      29242
L1D RFO       ACCESS:    8554250  HIT:    8522021  MISS:      32229
L1D PREFETCH  ACCESS:          0  HIT:          0  MISS:          0
L1D WRITEBACK ACCESS:          0  HIT:          0  MISS:          0
L1D PREFETCH  REQUESTED:          0  ISSUED:          0  USEFUL:          0  USELESS:          0
L1D AVERAGE MISS LATENCY: 316.461 cycles
L1I TOTAL     ACCESS:   26245785  HIT:    8373322  MISS:   17872463
L1I LOAD      ACCESS:    6530884  HIT:    3037144  MISS:    3493740
L1I RFO       ACCESS:          0  HIT:          0  MISS:          0
L1I PREFETCH  ACCESS:   19714901  HIT:    5336178  MISS:   14378723
L1I WRITEBACK ACCESS:          0  HIT:          0  MISS:          0
L1I PREFETCH  REQUESTED:   24637894  ISSUED:   24637894  USEFUL:    3863212  USELESS:   10515512
L1I AVERAGE MISS LATENCY: 7.1594 cycles
L2C TOTAL     ACCESS:   17971776  HIT:   17900282  MISS:      71494
L2C LOAD      ACCESS:    2955325  HIT:    2922935  MISS:      32390
L2C RFO       ACCESS:      32229  HIT:        993  MISS:      31236
L2C PREFETCH  ACCESS:   14946383  HIT:   14938620  MISS:       7763
L2C WRITEBACK ACCESS:      37839  HIT:      37734  MISS:        105
L2C PREFETCH  REQUESTED:          0  ISSUED:          0  USEFUL:       5977  USELESS:       1729
L2C AVERAGE MISS LATENCY: 299.116 cycles
LLC TOTAL     ACCESS:     106382  HIT:      53262  MISS:      53120
LLC LOAD      ACCESS:      32390  HIT:       7803  MISS:      24587
LLC RFO       ACCESS:      31236  HIT:       6649  MISS:      24587
LLC PREFETCH  ACCESS:       7763  HIT:       3858  MISS:       3905
LLC WRITEBACK ACCESS:      34993  HIT:      34952  MISS:         41
LLC PREFETCH  REQUESTED:          0  ISSUED:          0  USEFUL:       1348  USELESS:       2248
LLC AVERAGE MISS LATENCY: 387.79 cycles

DRAM Statistics
 CHANNEL 0
 RQ ROW_BUFFER_HIT:      14696  ROW_BUFFER_MISS:      38319
 DBUS_CONGESTED:      48726
 WQ ROW_BUFFER_HIT:       7438  ROW_BUFFER_MISS:      22004  FULL:          0

 AVG_CONGESTED_CYCLE: 6

CPU 0 Branch Prediction Accuracy: 96.296% MPKI: 6.30482 Average ROB Occupancy at Mispredict: 137.857
Branch type MPKI
BRANCH_DIRECT_JUMP: 0.0077
BRANCH_INDIRECT: 0.00346
BRANCH_CONDITIONAL: 6.0278
BRANCH_DIRECT_CALL: 0.01984
BRANCH_INDIRECT_CALL: 0.01132
BRANCH_RETURN: 0.2347

