
VirtualMemory physical capacity: 8589934592 num_ppages: 2097152
VirtualMemory page size: 4096 log2_page_size: 12
VirtualMemory initalizing ppage free list ... done
VirtualMemory shuffling ppage free list ... done


*** ChampSim Multicore Out-of-Order Simulator ***

Warmup Instructions: 50000000
Simulation Instructions: 50000000
Number of CPUs: 1
LLC sets: 2048
LLC ways: 16
Off-chip DRAM Size: 4096 MB Channels: 1 Width: 64-bit Data Rate: 3200 MT/s

CPU 0 runs ipc1_public/server_032.champsimtrace.xz
CPU 0 Bimodal branch predictor
Basic BTB sets: 1024 ways: 8 indirect buffer size: 4096 RAS size: 64
Heartbeat CPU 0 instructions: 10000001 cycles: 2831349 heartbeat IPC: 3.53189 cumulative IPC: 3.53189 (Simulation time: 0 hr 5 min 45 sec) 
Heartbeat CPU 0 instructions: 20000003 cycles: 5650059 heartbeat IPC: 3.54772 cumulative IPC: 3.53979 (Simulation time: 0 hr 11 min 13 sec) 
Heartbeat CPU 0 instructions: 30000001 cycles: 8465137 heartbeat IPC: 3.5523 cumulative IPC: 3.54395 (Simulation time: 0 hr 16 min 37 sec) 
Heartbeat CPU 0 instructions: 40000002 cycles: 11279428 heartbeat IPC: 3.55329 cumulative IPC: 3.54628 (Simulation time: 0 hr 24 min 23 sec) 
Heartbeat CPU 0 instructions: 50000004 cycles: 14096866 heartbeat IPC: 3.54932 cumulative IPC: 3.54689 (Simulation time: 0 hr 31 min 31 sec) 

Warmup complete CPU 0 instructions: 50000004 cycles: 14096866 (Simulation time: 0 hr 31 min 31 sec) 

Heartbeat CPU 0 instructions: 60000000 cycles: 19786492 heartbeat IPC: 1.75758 cumulative IPC: 1.75758 (Simulation time: 0 hr 40 min 7 sec) 
Heartbeat CPU 0 instructions: 70000001 cycles: 25456327 heartbeat IPC: 1.76372 cumulative IPC: 1.76065 (Simulation time: 0 hr 48 min 4 sec) 
*** Reached end of trace: ipc1_public/server_032.champsimtrace.xz
Heartbeat CPU 0 instructions: 80000004 cycles: 31104133 heartbeat IPC: 1.7706 cumulative IPC: 1.76395 (Simulation time: 0 hr 56 min 43 sec) 
Heartbeat CPU 0 instructions: 90000003 cycles: 36657096 heartbeat IPC: 1.80084 cumulative IPC: 1.77303 (Simulation time: 1 hr 7 min 47 sec) 
Heartbeat CPU 0 instructions: 100000001 cycles: 42221695 heartbeat IPC: 1.79707 cumulative IPC: 1.77779 (Simulation time: 1 hr 17 min 48 sec) 
Finished CPU 0 instructions: 50000003 cycles: 28124838 cumulative IPC: 1.77779 (Simulation time: 1 hr 17 min 48 sec) 

ChampSim completed all CPUs

Region of Interest Statistics

CPU 0 cumulative IPC: 1.77779 instructions: 50000003 cycles: 28124838
L1D TOTAL     ACCESS:   14589170  HIT:   13453840  MISS:    1135330
L1D LOAD      ACCESS:    7815886  HIT:    6978965  MISS:     836921
L1D RFO       ACCESS:    6773284  HIT:    6474875  MISS:     298409
L1D PREFETCH  ACCESS:          0  HIT:          0  MISS:          0
L1D WRITEBACK ACCESS:          0  HIT:          0  MISS:          0
L1D PREFETCH  REQUESTED:          0  ISSUED:          0  USEFUL:          0  USELESS:          0
L1D AVERAGE MISS LATENCY: 9.19301 cycles
L1I TOTAL     ACCESS:   15469137  HIT:    9484260  MISS:    5984877
L1I LOAD      ACCESS:    6395248  HIT:    5069061  MISS:    1326187
L1I RFO       ACCESS:          0  HIT:          0  MISS:          0
L1I PREFETCH  ACCESS:    9073889  HIT:    4415199  MISS:    4658690
L1I WRITEBACK ACCESS:          0  HIT:          0  MISS:          0
L1I PREFETCH  REQUESTED:   10475826  ISSUED:   10475826  USEFUL:    2697564  USELESS:    1961115
L1I AVERAGE MISS LATENCY: 7.41167 cycles
L2C TOTAL     ACCESS:    7709000  HIT:    6980541  MISS:     728459
L2C LOAD      ACCESS:    1899232  HIT:    1635288  MISS:     263944
L2C RFO       ACCESS:     298396  HIT:     245838  MISS:      52558
L2C PREFETCH  ACCESS:    4922566  HIT:    4530089  MISS:     392477
L2C WRITEBACK ACCESS:     588806  HIT:     569326  MISS:      19480
L2C PREFETCH  REQUESTED:          0  ISSUED:          0  USEFUL:     174638  USELESS:     217833
L2C AVERAGE MISS LATENCY: 11.3715 cycles
LLC TOTAL     ACCESS:     809865  HIT:     806287  MISS:       3578
LLC LOAD      ACCESS:     263944  HIT:     260546  MISS:       3398
LLC RFO       ACCESS:      52558  HIT:      52558  MISS:          0
LLC PREFETCH  ACCESS:     392477  HIT:     392307  MISS:        170
LLC WRITEBACK ACCESS:     100886  HIT:     100876  MISS:         10
LLC PREFETCH  REQUESTED:          0  ISSUED:          0  USEFUL:        377  USELESS:         23
LLC AVERAGE MISS LATENCY: 135.53 cycles

DRAM Statistics
 CHANNEL 0
 RQ ROW_BUFFER_HIT:       1326  ROW_BUFFER_MISS:       2242
 DBUS_CONGESTED:         43
 WQ ROW_BUFFER_HIT:          0  ROW_BUFFER_MISS:         10  FULL:          0

 AVG_CONGESTED_CYCLE: 6

CPU 0 Branch Prediction Accuracy: 95.4961% MPKI: 8.35358 Average ROB Occupancy at Mispredict: 140.073
Branch type MPKI
BRANCH_DIRECT_JUMP: 0.00012
BRANCH_INDIRECT: 0.36776
BRANCH_CONDITIONAL: 7.40346
BRANCH_DIRECT_CALL: 4e-05
BRANCH_INDIRECT_CALL: 0.47736
BRANCH_RETURN: 0.10484

