
VirtualMemory physical capacity: 8589934592 num_ppages: 2097152
VirtualMemory page size: 4096 log2_page_size: 12
VirtualMemory initalizing ppage free list ... done
VirtualMemory shuffling ppage free list ... done


*** ChampSim Multicore Out-of-Order Simulator ***

Warmup Instructions: 50000000
Simulation Instructions: 50000000
Number of CPUs: 1
LLC sets: 2048
LLC ways: 16
Off-chip DRAM Size: 4096 MB Channels: 1 Width: 64-bit Data Rate: 3200 MT/s

CPU 0 runs ipc1_public/server_032.champsimtrace.xz
CPU 0 Bimodal branch predictor
Basic BTB sets: 1024 ways: 8 indirect buffer size: 4096 RAS size: 64
Heartbeat CPU 0 instructions: 10000001 cycles: 2978806 heartbeat IPC: 3.35705 cumulative IPC: 3.35705 (Simulation time: 0 hr 3 min 41 sec) 
Heartbeat CPU 0 instructions: 20000003 cycles: 5956160 heartbeat IPC: 3.35869 cumulative IPC: 3.35787 (Simulation time: 0 hr 10 min 40 sec) 
Heartbeat CPU 0 instructions: 30000001 cycles: 8933617 heartbeat IPC: 3.35857 cumulative IPC: 3.3581 (Simulation time: 0 hr 17 min 13 sec) 
Heartbeat CPU 0 instructions: 40000002 cycles: 11911062 heartbeat IPC: 3.35858 cumulative IPC: 3.35822 (Simulation time: 0 hr 22 min 11 sec) 
Heartbeat CPU 0 instructions: 50000002 cycles: 14888874 heartbeat IPC: 3.35817 cumulative IPC: 3.35821 (Simulation time: 0 hr 29 min 11 sec) 

Warmup complete CPU 0 instructions: 50000002 cycles: 14888874 (Simulation time: 0 hr 29 min 11 sec) 

Heartbeat CPU 0 instructions: 60000000 cycles: 20974754 heartbeat IPC: 1.64315 cumulative IPC: 1.64315 (Simulation time: 0 hr 40 min 26 sec) 
Heartbeat CPU 0 instructions: 70000001 cycles: 27050921 heartbeat IPC: 1.64577 cumulative IPC: 1.64446 (Simulation time: 0 hr 56 min 42 sec) 
*** Reached end of trace: ipc1_public/server_032.champsimtrace.xz
Heartbeat CPU 0 instructions: 80000004 cycles: 33110139 heartbeat IPC: 1.65038 cumulative IPC: 1.64643 (Simulation time: 1 hr 6 min 51 sec) 
Heartbeat CPU 0 instructions: 90000003 cycles: 39089798 heartbeat IPC: 1.67234 cumulative IPC: 1.65283 (Simulation time: 1 hr 19 min 41 sec) 
Heartbeat CPU 0 instructions: 100000001 cycles: 45076344 heartbeat IPC: 1.67041 cumulative IPC: 1.65632 (Simulation time: 1 hr 30 min 8 sec) 
Finished CPU 0 instructions: 50000000 cycles: 30187476 cumulative IPC: 1.65632 (Simulation time: 1 hr 30 min 8 sec) 

ChampSim completed all CPUs

Region of Interest Statistics

CPU 0 cumulative IPC: 1.65632 instructions: 50000000 cycles: 30187476
L1D TOTAL     ACCESS:   14786032  HIT:   13650880  MISS:    1135152
L1D LOAD      ACCESS:    7999026  HIT:    7162172  MISS:     836854
L1D RFO       ACCESS:    6787006  HIT:    6488708  MISS:     298298
L1D PREFETCH  ACCESS:          0  HIT:          0  MISS:          0
L1D WRITEBACK ACCESS:          0  HIT:          0  MISS:          0
L1D PREFETCH  REQUESTED:          0  ISSUED:          0  USEFUL:          0  USELESS:          0
L1D AVERAGE MISS LATENCY: 8.57326 cycles
L1I TOTAL     ACCESS:    5948636  HIT:    1638144  MISS:    4310492
L1I LOAD      ACCESS:    5948636  HIT:    1638144  MISS:    4310492
L1I RFO       ACCESS:          0  HIT:          0  MISS:          0
L1I PREFETCH  ACCESS:          0  HIT:          0  MISS:          0
L1I WRITEBACK ACCESS:          0  HIT:          0  MISS:          0
L1I PREFETCH  REQUESTED:          0  ISSUED:          0  USEFUL:          0  USELESS:          0
L1I AVERAGE MISS LATENCY: 6.64387 cycles
L2C TOTAL     ACCESS:    6034333  HIT:    5655984  MISS:     378349
L2C LOAD      ACCESS:    5147344  HIT:    4817948  MISS:     329396
L2C RFO       ACCESS:     298290  HIT:     263780  MISS:      34510
L2C PREFETCH  ACCESS:          0  HIT:          0  MISS:          0
L2C WRITEBACK ACCESS:     588699  HIT:     574256  MISS:      14443
L2C PREFETCH  REQUESTED:          0  ISSUED:          0  USEFUL:          0  USELESS:          0
L2C AVERAGE MISS LATENCY: 11.7258 cycles
LLC TOTAL     ACCESS:     437322  HIT:     434062  MISS:       3260
LLC LOAD      ACCESS:     329396  HIT:     326140  MISS:       3256
LLC RFO       ACCESS:      34494  HIT:      34494  MISS:          0
LLC PREFETCH  ACCESS:          0  HIT:          0  MISS:          0
LLC WRITEBACK ACCESS:      73432  HIT:      73428  MISS:          4
LLC PREFETCH  REQUESTED:          0  ISSUED:          0  USEFUL:          0  USELESS:          0
LLC AVERAGE MISS LATENCY: 132.979 cycles

DRAM Statistics
 CHANNEL 0
 RQ ROW_BUFFER_HIT:       1300  ROW_BUFFER_MISS:       1956
 DBUS_CONGESTED:         38
 WQ ROW_BUFFER_HIT:          0  ROW_BUFFER_MISS:          3  FULL:          0

 AVG_CONGESTED_CYCLE: 5

CPU 0 Branch Prediction Accuracy: 95.4961% MPKI: 8.35354 Average ROB Occupancy at Mispredict: 107.132
Branch type MPKI
BRANCH_DIRECT_JUMP: 0.00012
BRANCH_INDIRECT: 0.36776
BRANCH_CONDITIONAL: 7.40342
BRANCH_DIRECT_CALL: 4e-05
BRANCH_INDIRECT_CALL: 0.47736
BRANCH_RETURN: 0.10484

