
VirtualMemory physical capacity: 8589934592 num_ppages: 2097152
VirtualMemory page size: 4096 log2_page_size: 12
VirtualMemory initalizing ppage free list ... done
VirtualMemory shuffling ppage free list ... done


*** ChampSim Multicore Out-of-Order Simulator ***

Warmup Instructions: 50000000
Simulation Instructions: 50000000
Number of CPUs: 1
LLC sets: 2048
LLC ways: 16
Off-chip DRAM Size: 4096 MB Channels: 1 Width: 64-bit Data Rate: 3200 MT/s

CPU 0 runs ipc1_public/server_011.champsimtrace.xz
CPU 0 Bimodal branch predictor
Basic BTB sets: 1024 ways: 8 indirect buffer size: 4096 RAS size: 64
Heartbeat CPU 0 instructions: 10000004 cycles: 2784381 heartbeat IPC: 3.59146 cumulative IPC: 3.59146 (Simulation time: 0 hr 12 min 7 sec) 
Heartbeat CPU 0 instructions: 20000000 cycles: 5566391 heartbeat IPC: 3.59452 cumulative IPC: 3.59299 (Simulation time: 0 hr 27 min 32 sec) 
Heartbeat CPU 0 instructions: 30000002 cycles: 8325973 heartbeat IPC: 3.62374 cumulative IPC: 3.60318 (Simulation time: 0 hr 42 min 9 sec) 
Heartbeat CPU 0 instructions: 40000000 cycles: 11111380 heartbeat IPC: 3.59014 cumulative IPC: 3.59991 (Simulation time: 1 hr 1 min 29 sec) 
Heartbeat CPU 0 instructions: 50000001 cycles: 13884235 heartbeat IPC: 3.60639 cumulative IPC: 3.60121 (Simulation time: 1 hr 19 min 26 sec) 

Warmup complete CPU 0 instructions: 50000001 cycles: 13884235 (Simulation time: 1 hr 19 min 26 sec) 

Heartbeat CPU 0 instructions: 60000002 cycles: 20303105 heartbeat IPC: 1.55791 cumulative IPC: 1.55791 (Simulation time: 1 hr 41 min 30 sec) 
Heartbeat CPU 0 instructions: 70000001 cycles: 27448182 heartbeat IPC: 1.39956 cumulative IPC: 1.4745 (Simulation time: 1 hr 59 min 44 sec) 
Heartbeat CPU 0 instructions: 80000000 cycles: 35703169 heartbeat IPC: 1.21139 cumulative IPC: 1.37495 (Simulation time: 2 hr 10 min 29 sec) 
Heartbeat CPU 0 instructions: 90000002 cycles: 42111402 heartbeat IPC: 1.56049 cumulative IPC: 1.41707 (Simulation time: 2 hr 24 min 18 sec) 
Heartbeat CPU 0 instructions: 100000002 cycles: 48420976 heartbeat IPC: 1.58489 cumulative IPC: 1.44773 (Simulation time: 2 hr 38 min 46 sec) 
Finished CPU 0 instructions: 50000001 cycles: 34536741 cumulative IPC: 1.44773 (Simulation time: 2 hr 38 min 46 sec) 

ChampSim completed all CPUs

Region of Interest Statistics

CPU 0 cumulative IPC: 1.44773 instructions: 50000001 cycles: 34536741
L1D TOTAL     ACCESS:   12553342  HIT:   11920630  MISS:     632712
L1D LOAD      ACCESS:    7641395  HIT:    7099366  MISS:     542029
L1D RFO       ACCESS:    4911947  HIT:    4821264  MISS:      90683
L1D PREFETCH  ACCESS:          0  HIT:          0  MISS:          0
L1D WRITEBACK ACCESS:          0  HIT:          0  MISS:          0
L1D PREFETCH  REQUESTED:          0  ISSUED:          0  USEFUL:          0  USELESS:          0
L1D AVERAGE MISS LATENCY: 31.0812 cycles
L1I TOTAL     ACCESS:    4770731  HIT:    3592088  MISS:    1178643
L1I LOAD      ACCESS:    4770731  HIT:    3592088  MISS:    1178643
L1I RFO       ACCESS:          0  HIT:          0  MISS:          0
L1I PREFETCH  ACCESS:          0  HIT:          0  MISS:          0
L1I WRITEBACK ACCESS:          0  HIT:          0  MISS:          0
L1I PREFETCH  REQUESTED:          0  ISSUED:          0  USEFUL:          0  USELESS:          0
L1I AVERAGE MISS LATENCY: 13.9876 cycles
L2C TOTAL     ACCESS:    2060310  HIT:    1245241  MISS:     815069
L2C LOAD      ACCESS:    1720670  HIT:     958048  MISS:     762622
L2C RFO       ACCESS:      90682  HIT:      40034  MISS:      50648
L2C PREFETCH  ACCESS:          0  HIT:          0  MISS:          0
L2C WRITEBACK ACCESS:     248958  HIT:     247159  MISS:       1799
L2C PREFETCH  REQUESTED:          0  ISSUED:          0  USEFUL:          0  USELESS:          0
L2C AVERAGE MISS LATENCY: 30.2066 cycles
LLC TOTAL     ACCESS:     949292  HIT:     858264  MISS:      91028
LLC LOAD      ACCESS:     762622  HIT:     688714  MISS:      73908
LLC RFO       ACCESS:      50648  HIT:      33671  MISS:      16977
LLC PREFETCH  ACCESS:          0  HIT:          0  MISS:          0
LLC WRITEBACK ACCESS:     136022  HIT:     135879  MISS:        143
LLC PREFETCH  REQUESTED:          0  ISSUED:          0  USEFUL:          0  USELESS:          0
LLC AVERAGE MISS LATENCY: 172.177 cycles

DRAM Statistics
 CHANNEL 0
 RQ ROW_BUFFER_HIT:      11256  ROW_BUFFER_MISS:      79626
 DBUS_CONGESTED:      36058
 WQ ROW_BUFFER_HIT:      15320  ROW_BUFFER_MISS:      39200  FULL:          0

 AVG_CONGESTED_CYCLE: 6

CPU 0 Branch Prediction Accuracy: 93.6807% MPKI: 11.8707 Average ROB Occupancy at Mispredict: 102.853
Branch type MPKI
BRANCH_DIRECT_JUMP: 0.25862
BRANCH_INDIRECT: 0.4927
BRANCH_CONDITIONAL: 8.64134
BRANCH_DIRECT_CALL: 0.47544
BRANCH_INDIRECT_CALL: 0.75052
BRANCH_RETURN: 1.2521

