
VirtualMemory physical capacity: 8589934592 num_ppages: 2097152
VirtualMemory page size: 4096 log2_page_size: 12
VirtualMemory initalizing ppage free list ... done
VirtualMemory shuffling ppage free list ... done


*** ChampSim Multicore Out-of-Order Simulator ***

Warmup Instructions: 50000000
Simulation Instructions: 50000000
Number of CPUs: 1
LLC sets: 2048
LLC ways: 16
Off-chip DRAM Size: 4096 MB Channels: 1 Width: 64-bit Data Rate: 3200 MT/s

CPU 0 runs ipc1_public/server_012.champsimtrace.xz
CPU 0 Bimodal branch predictor
Basic BTB sets: 1024 ways: 8 indirect buffer size: 4096 RAS size: 64
LHT KB: 31.56
SCC KB: 1.56
Total KB: 33.12
Heartbeat CPU 0 instructions: 10000000 cycles: 2608557 heartbeat IPC: 3.83354 cumulative IPC: 3.83354 (Simulation time: 0 hr 13 min 26 sec) 
Heartbeat CPU 0 instructions: 20000000 cycles: 5216716 heartbeat IPC: 3.83412 cumulative IPC: 3.83383 (Simulation time: 0 hr 26 min 46 sec) 
Heartbeat CPU 0 instructions: 30000001 cycles: 7819992 heartbeat IPC: 3.84131 cumulative IPC: 3.83632 (Simulation time: 0 hr 40 min 38 sec) 
Heartbeat CPU 0 instructions: 40000002 cycles: 10429485 heartbeat IPC: 3.83216 cumulative IPC: 3.83528 (Simulation time: 0 hr 54 min 3 sec) 
Heartbeat CPU 0 instructions: 50000001 cycles: 13033098 heartbeat IPC: 3.84082 cumulative IPC: 3.83639 (Simulation time: 1 hr 7 min 59 sec) 

Warmup complete CPU 0 instructions: 50000001 cycles: 13033098 (Simulation time: 1 hr 7 min 59 sec) 

Heartbeat CPU 0 instructions: 60000003 cycles: 18594410 heartbeat IPC: 1.79814 cumulative IPC: 1.79814 (Simulation time: 1 hr 25 min 53 sec) 
Heartbeat CPU 0 instructions: 70000001 cycles: 24221142 heartbeat IPC: 1.77723 cumulative IPC: 1.78762 (Simulation time: 1 hr 38 min 3 sec) 
Heartbeat CPU 0 instructions: 80000002 cycles: 29839130 heartbeat IPC: 1.78 cumulative IPC: 1.78507 (Simulation time: 1 hr 50 min 50 sec) 
Heartbeat CPU 0 instructions: 90000004 cycles: 35634392 heartbeat IPC: 1.72555 cumulative IPC: 1.76981 (Simulation time: 2 hr 2 min 13 sec) 
Heartbeat CPU 0 instructions: 100000002 cycles: 41410152 heartbeat IPC: 1.73137 cumulative IPC: 1.76199 (Simulation time: 2 hr 13 min 27 sec) 
Finished CPU 0 instructions: 50000001 cycles: 28377054 cumulative IPC: 1.76199 (Simulation time: 2 hr 13 min 27 sec) 

ChampSim completed all CPUs

Region of Interest Statistics

CPU 0 cumulative IPC: 1.76199 instructions: 50000001 cycles: 28377054
L1D TOTAL     ACCESS:   12111853  HIT:   11475858  MISS:     635995
L1D LOAD      ACCESS:    7054969  HIT:    6508602  MISS:     546367
L1D RFO       ACCESS:    5056884  HIT:    4967256  MISS:      89628
L1D PREFETCH  ACCESS:          0  HIT:          0  MISS:          0
L1D WRITEBACK ACCESS:          0  HIT:          0  MISS:          0
L1D PREFETCH  REQUESTED:          0  ISSUED:          0  USEFUL:          0  USELESS:          0
L1D AVERAGE MISS LATENCY: 32.7336 cycles
L1I TOTAL     ACCESS:   16396661  HIT:   13776846  MISS:    2619815
L1I LOAD      ACCESS:    5499742  HIT:    5171637  MISS:     328105
L1I RFO       ACCESS:          0  HIT:          0  MISS:          0
L1I PREFETCH  ACCESS:   10896919  HIT:    8605209  MISS:    2291710
L1I WRITEBACK ACCESS:          0  HIT:          0  MISS:          0
L1I PREFETCH  REQUESTED:   16513143  ISSUED:   16513143  USEFUL:    1381711  USELESS:     909978
L1I AVERAGE MISS LATENCY: 10.8193 cycles
L2C TOTAL     ACCESS:    3510475  HIT:    2118943  MISS:    1391532
L2C LOAD      ACCESS:     672467  HIT:     245777  MISS:     426690
L2C RFO       ACCESS:      89624  HIT:      29293  MISS:      60331
L2C PREFETCH  ACCESS:    2493715  HIT:    1596030  MISS:     897685
L2C WRITEBACK ACCESS:     254669  HIT:     247843  MISS:       6826
L2C PREFETCH  REQUESTED:          0  ISSUED:          0  USEFUL:     295530  USELESS:     601793
L2C AVERAGE MISS LATENCY: 23.0239 cycles
LLC TOTAL     ACCESS:    1556122  HIT:    1462972  MISS:      93150
LLC LOAD      ACCESS:     426687  HIT:     368395  MISS:      58292
LLC RFO       ACCESS:      60326  HIT:      48087  MISS:      12239
LLC PREFETCH  ACCESS:     897685  HIT:     875127  MISS:      22558
LLC WRITEBACK ACCESS:     171424  HIT:     171363  MISS:         61
LLC PREFETCH  REQUESTED:          0  ISSUED:          0  USEFUL:      14489  USELESS:       8366
LLC AVERAGE MISS LATENCY: 180.365 cycles

DRAM Statistics
 CHANNEL 0
 RQ ROW_BUFFER_HIT:       9242  ROW_BUFFER_MISS:      83821
 DBUS_CONGESTED:      42351
 WQ ROW_BUFFER_HIT:      12469  ROW_BUFFER_MISS:      43689  FULL:          0

 AVG_CONGESTED_CYCLE: 6

CPU 0 Branch Prediction Accuracy: 95.221% MPKI: 8.88772 Average ROB Occupancy at Mispredict: 142.007
Branch type MPKI
BRANCH_DIRECT_JUMP: 0.2135
BRANCH_INDIRECT: 0.29734
BRANCH_CONDITIONAL: 6.38958
BRANCH_DIRECT_CALL: 0.41884
BRANCH_INDIRECT_CALL: 0.13318
BRANCH_RETURN: 1.43528

