
VirtualMemory physical capacity: 8589934592 num_ppages: 2097152
VirtualMemory page size: 4096 log2_page_size: 12
VirtualMemory initalizing ppage free list ... done
VirtualMemory shuffling ppage free list ... done


*** ChampSim Multicore Out-of-Order Simulator ***

Warmup Instructions: 50000000
Simulation Instructions: 50000000
Number of CPUs: 1
LLC sets: 2048
LLC ways: 16
Off-chip DRAM Size: 4096 MB Channels: 1 Width: 64-bit Data Rate: 3200 MT/s

CPU 0 runs ipc1_public/server_015.champsimtrace.xz
CPU 0 Bimodal branch predictor
Basic BTB sets: 1024 ways: 8 indirect buffer size: 4096 RAS size: 64
CPU 0 L1I next line prefetcher
Heartbeat CPU 0 instructions: 10000000 cycles: 2798658 heartbeat IPC: 3.57314 cumulative IPC: 3.57314 (Simulation time: 0 hr 15 min 8 sec) 
Heartbeat CPU 0 instructions: 20000002 cycles: 5672449 heartbeat IPC: 3.47972 cumulative IPC: 3.52581 (Simulation time: 0 hr 27 min 33 sec) 
Heartbeat CPU 0 instructions: 30000003 cycles: 8548206 heartbeat IPC: 3.47735 cumulative IPC: 3.50951 (Simulation time: 0 hr 43 min 6 sec) 
Heartbeat CPU 0 instructions: 40000003 cycles: 11433296 heartbeat IPC: 3.4661 cumulative IPC: 3.49855 (Simulation time: 0 hr 57 min 49 sec) 
Heartbeat CPU 0 instructions: 50000002 cycles: 14318320 heartbeat IPC: 3.46618 cumulative IPC: 3.49203 (Simulation time: 1 hr 13 min 52 sec) 

Warmup complete CPU 0 instructions: 50000002 cycles: 14318320 (Simulation time: 1 hr 13 min 52 sec) 

Heartbeat CPU 0 instructions: 60000003 cycles: 20066183 heartbeat IPC: 1.73978 cumulative IPC: 1.73978 (Simulation time: 1 hr 28 min 37 sec) 
Heartbeat CPU 0 instructions: 70000001 cycles: 25840074 heartbeat IPC: 1.73193 cumulative IPC: 1.73585 (Simulation time: 1 hr 43 min 22 sec) 
Heartbeat CPU 0 instructions: 80000000 cycles: 31613419 heartbeat IPC: 1.7321 cumulative IPC: 1.7346 (Simulation time: 1 hr 55 min 11 sec) 
Heartbeat CPU 0 instructions: 90000000 cycles: 37388141 heartbeat IPC: 1.73169 cumulative IPC: 1.73387 (Simulation time: 2 hr 9 min 47 sec) 
Heartbeat CPU 0 instructions: 100000000 cycles: 43162052 heartbeat IPC: 1.73193 cumulative IPC: 1.73348 (Simulation time: 2 hr 19 min 57 sec) 
Finished CPU 0 instructions: 50000003 cycles: 28843733 cumulative IPC: 1.73348 (Simulation time: 2 hr 19 min 57 sec) 

ChampSim completed all CPUs

Region of Interest Statistics

CPU 0 cumulative IPC: 1.73348 instructions: 50000003 cycles: 28843733
L1D TOTAL     ACCESS:   16303155  HIT:   16302751  MISS:        404
L1D LOAD      ACCESS:    7603829  HIT:    7603483  MISS:        346
L1D RFO       ACCESS:    8699326  HIT:    8699268  MISS:         58
L1D PREFETCH  ACCESS:          0  HIT:          0  MISS:          0
L1D WRITEBACK ACCESS:          0  HIT:          0  MISS:          0
L1D PREFETCH  REQUESTED:          0  ISSUED:          0  USEFUL:          0  USELESS:          0
L1D AVERAGE MISS LATENCY: 36.0866 cycles
L1I TOTAL     ACCESS:   12955473  HIT:    9383018  MISS:    3572455
L1I LOAD      ACCESS:    6888324  HIT:    5417793  MISS:    1470531
L1I RFO       ACCESS:          0  HIT:          0  MISS:          0
L1I PREFETCH  ACCESS:    6067149  HIT:    3965225  MISS:    2101924
L1I WRITEBACK ACCESS:          0  HIT:          0  MISS:          0
L1I PREFETCH  REQUESTED:    6463463  ISSUED:    6463463  USEFUL:          0  USELESS:          0
L1I AVERAGE MISS LATENCY: 6.18843 cycles
L2C TOTAL     ACCESS:    3573043  HIT:    3572910  MISS:        133
L2C LOAD      ACCESS:    1411607  HIT:    1411497  MISS:        110
L2C RFO       ACCESS:         58  HIT:         55  MISS:          3
L2C PREFETCH  ACCESS:    2161194  HIT:    2161175  MISS:         19
L2C WRITEBACK ACCESS:        184  HIT:        183  MISS:          1
L2C PREFETCH  REQUESTED:          0  ISSUED:          0  USEFUL:        146  USELESS:          3
L2C AVERAGE MISS LATENCY: 93.6165 cycles
LLC TOTAL     ACCESS:        187  HIT:        124  MISS:         63
LLC LOAD      ACCESS:        110  HIT:         51  MISS:         59
LLC RFO       ACCESS:          3  HIT:          0  MISS:          3
LLC PREFETCH  ACCESS:         19  HIT:         18  MISS:          1
LLC WRITEBACK ACCESS:         55  HIT:         55  MISS:          0
LLC PREFETCH  REQUESTED:          0  ISSUED:          0  USEFUL:         17  USELESS:          1
LLC AVERAGE MISS LATENCY: 174.587 cycles
I-Shadow cache 408 bytes
Touched + WorthPF tables 6144 bytes 
MMA filter 174 bytes 
FNL filter 272 bytes 
TOTAL PREFETCHER STORAGE SIZE: 25174 bytes
CPU 0 L1I next line prefetcher final stats

DRAM Statistics
 CHANNEL 0
 RQ ROW_BUFFER_HIT:          6  ROW_BUFFER_MISS:         57
 DBUS_CONGESTED:         18
 WQ ROW_BUFFER_HIT:          2  ROW_BUFFER_MISS:         36  FULL:          0

 AVG_CONGESTED_CYCLE: 6

CPU 0 Branch Prediction Accuracy: 96.6172% MPKI: 5.7012 Average ROB Occupancy at Mispredict: 175.83
Branch type MPKI
BRANCH_DIRECT_JUMP: 2e-05
BRANCH_INDIRECT: 0
BRANCH_CONDITIONAL: 5.55508
BRANCH_DIRECT_CALL: 8e-05
BRANCH_INDIRECT_CALL: 0.00028
BRANCH_RETURN: 0.14574

