
VirtualMemory physical capacity: 8589934592 num_ppages: 2097152
VirtualMemory page size: 4096 log2_page_size: 12
VirtualMemory initalizing ppage free list ... done
VirtualMemory shuffling ppage free list ... done


*** ChampSim Multicore Out-of-Order Simulator ***

Warmup Instructions: 50000000
Simulation Instructions: 50000000
Number of CPUs: 1
LLC sets: 2048
LLC ways: 16
Off-chip DRAM Size: 4096 MB Channels: 1 Width: 64-bit Data Rate: 3200 MT/s

CPU 0 runs ipc1_public/server_009.champsimtrace.xz
CPU 0 Bimodal branch predictor
Basic BTB sets: 1024 ways: 8 indirect buffer size: 4096 RAS size: 64
Heartbeat CPU 0 instructions: 10000002 cycles: 2749095 heartbeat IPC: 3.63756 cumulative IPC: 3.63756 (Simulation time: 0 hr 19 min 13 sec) 
Heartbeat CPU 0 instructions: 20000000 cycles: 5508446 heartbeat IPC: 3.62404 cumulative IPC: 3.63079 (Simulation time: 0 hr 40 min 7 sec) 
Heartbeat CPU 0 instructions: 30000003 cycles: 8254793 heartbeat IPC: 3.6412 cumulative IPC: 3.63425 (Simulation time: 1 hr 1 min 51 sec) 
Heartbeat CPU 0 instructions: 40000003 cycles: 11018721 heartbeat IPC: 3.61804 cumulative IPC: 3.63019 (Simulation time: 1 hr 22 min 32 sec) 
Heartbeat CPU 0 instructions: 50000002 cycles: 13796114 heartbeat IPC: 3.6005 cumulative IPC: 3.62421 (Simulation time: 1 hr 42 min 24 sec) 

Warmup complete CPU 0 instructions: 50000002 cycles: 13796114 (Simulation time: 1 hr 42 min 24 sec) 

Heartbeat CPU 0 instructions: 60000002 cycles: 22700711 heartbeat IPC: 1.12302 cumulative IPC: 1.12302 (Simulation time: 2 hr 5 min 30 sec) 
Heartbeat CPU 0 instructions: 70000001 cycles: 35066519 heartbeat IPC: 0.808681 cumulative IPC: 0.940274 (Simulation time: 2 hr 25 min 0 sec) 
Heartbeat CPU 0 instructions: 80000001 cycles: 41158426 heartbeat IPC: 1.64152 cumulative IPC: 1.0964 (Simulation time: 2 hr 41 min 6 sec) 
Heartbeat CPU 0 instructions: 90000001 cycles: 47361879 heartbeat IPC: 1.61201 cumulative IPC: 1.19169 (Simulation time: 2 hr 53 min 44 sec) 
Heartbeat CPU 0 instructions: 100000002 cycles: 53513962 heartbeat IPC: 1.62547 cumulative IPC: 1.25888 (Simulation time: 3 hr 2 min 14 sec) 
Finished CPU 0 instructions: 50000000 cycles: 39717848 cumulative IPC: 1.25888 (Simulation time: 3 hr 2 min 14 sec) 

ChampSim completed all CPUs

Region of Interest Statistics

CPU 0 cumulative IPC: 1.25888 instructions: 50000000 cycles: 39717848
L1D TOTAL     ACCESS:   14102632  HIT:   11871621  MISS:    2231011
L1D LOAD      ACCESS:    9395653  HIT:    7257524  MISS:    2138129
L1D RFO       ACCESS:    4706979  HIT:    4614097  MISS:      92882
L1D PREFETCH  ACCESS:          0  HIT:          0  MISS:          0
L1D WRITEBACK ACCESS:          0  HIT:          0  MISS:          0
L1D PREFETCH  REQUESTED:          0  ISSUED:          0  USEFUL:          0  USELESS:          0
L1D AVERAGE MISS LATENCY: 13.113 cycles
L1I TOTAL     ACCESS:    4392212  HIT:    3370152  MISS:    1022060
L1I LOAD      ACCESS:    4392212  HIT:    3370152  MISS:    1022060
L1I RFO       ACCESS:          0  HIT:          0  MISS:          0
L1I PREFETCH  ACCESS:          0  HIT:          0  MISS:          0
L1I WRITEBACK ACCESS:          0  HIT:          0  MISS:          0
L1I PREFETCH  REQUESTED:          0  ISSUED:          0  USEFUL:          0  USELESS:          0
L1I AVERAGE MISS LATENCY: 12 cycles
L2C TOTAL     ACCESS:    3476828  HIT:    2721643  MISS:     755185
L2C LOAD      ACCESS:    3160187  HIT:    2452641  MISS:     707546
L2C RFO       ACCESS:      92882  HIT:      47597  MISS:      45285
L2C PREFETCH  ACCESS:          0  HIT:          0  MISS:          0
L2C WRITEBACK ACCESS:     223759  HIT:     221405  MISS:       2354
L2C PREFETCH  REQUESTED:          0  ISSUED:          0  USEFUL:          0  USELESS:          0
L2C AVERAGE MISS LATENCY: 25.158 cycles
LLC TOTAL     ACCESS:     879825  HIT:     818983  MISS:      60842
LLC LOAD      ACCESS:     707546  HIT:     655817  MISS:      51729
LLC RFO       ACCESS:      45285  HIT:      36234  MISS:       9051
LLC PREFETCH  ACCESS:          0  HIT:          0  MISS:          0
LLC WRITEBACK ACCESS:     126994  HIT:     126932  MISS:         62
LLC PREFETCH  REQUESTED:          0  ISSUED:          0  USEFUL:          0  USELESS:          0
LLC AVERAGE MISS LATENCY: 176.134 cycles

DRAM Statistics
 CHANNEL 0
 RQ ROW_BUFFER_HIT:       8551  ROW_BUFFER_MISS:      52226
 DBUS_CONGESTED:      25681
 WQ ROW_BUFFER_HIT:      10120  ROW_BUFFER_MISS:      30827  FULL:          0

 AVG_CONGESTED_CYCLE: 6

CPU 0 Branch Prediction Accuracy: 95.6111% MPKI: 9.25458 Average ROB Occupancy at Mispredict: 147.245
Branch type MPKI
BRANCH_DIRECT_JUMP: 0.17342
BRANCH_INDIRECT: 0.25672
BRANCH_CONDITIONAL: 7.23712
BRANCH_DIRECT_CALL: 0.3408
BRANCH_INDIRECT_CALL: 0.11634
BRANCH_RETURN: 1.13018

