
VirtualMemory physical capacity: 8589934592 num_ppages: 2097152
VirtualMemory page size: 4096 log2_page_size: 12
VirtualMemory initalizing ppage free list ... done
VirtualMemory shuffling ppage free list ... done


*** ChampSim Multicore Out-of-Order Simulator ***

Warmup Instructions: 50000000
Simulation Instructions: 50000000
Number of CPUs: 1
LLC sets: 2048
LLC ways: 16
Off-chip DRAM Size: 4096 MB Channels: 1 Width: 64-bit Data Rate: 3200 MT/s

CPU 0 runs ipc1_public/server_002.champsimtrace.xz
CPU 0 Bimodal branch predictor
Basic BTB sets: 1024 ways: 8 indirect buffer size: 4096 RAS size: 64
LHT KB: 31.56
SCC KB: 1.56
Total KB: 33.12
Heartbeat CPU 0 instructions: 10000002 cycles: 2572777 heartbeat IPC: 3.88685 cumulative IPC: 3.88685 (Simulation time: 0 hr 6 min 18 sec) 
Heartbeat CPU 0 instructions: 20000003 cycles: 5181133 heartbeat IPC: 3.83383 cumulative IPC: 3.86016 (Simulation time: 0 hr 11 min 55 sec) 
Heartbeat CPU 0 instructions: 30000002 cycles: 7766805 heartbeat IPC: 3.86747 cumulative IPC: 3.86259 (Simulation time: 0 hr 16 min 41 sec) 
Heartbeat CPU 0 instructions: 40000002 cycles: 10352568 heartbeat IPC: 3.86733 cumulative IPC: 3.86378 (Simulation time: 0 hr 20 min 50 sec) 
Heartbeat CPU 0 instructions: 50000003 cycles: 12938178 heartbeat IPC: 3.86756 cumulative IPC: 3.86453 (Simulation time: 0 hr 26 min 31 sec) 

Warmup complete CPU 0 instructions: 50000003 cycles: 12938178 (Simulation time: 0 hr 26 min 31 sec) 

Heartbeat CPU 0 instructions: 60000000 cycles: 19112757 heartbeat IPC: 1.61954 cumulative IPC: 1.61954 (Simulation time: 0 hr 32 min 31 sec) 
Heartbeat CPU 0 instructions: 70000001 cycles: 25286828 heartbeat IPC: 1.61968 cumulative IPC: 1.61961 (Simulation time: 0 hr 39 min 25 sec) 
Heartbeat CPU 0 instructions: 80000000 cycles: 31460702 heartbeat IPC: 1.61973 cumulative IPC: 1.61965 (Simulation time: 0 hr 46 min 2 sec) 
Heartbeat CPU 0 instructions: 90000002 cycles: 37635221 heartbeat IPC: 1.61956 cumulative IPC: 1.61963 (Simulation time: 0 hr 52 min 27 sec) 
Heartbeat CPU 0 instructions: 100000004 cycles: 43809552 heartbeat IPC: 1.61961 cumulative IPC: 1.61962 (Simulation time: 1 hr 0 min 20 sec) 
Finished CPU 0 instructions: 50000001 cycles: 30871374 cumulative IPC: 1.61962 (Simulation time: 1 hr 0 min 20 sec) 

ChampSim completed all CPUs

Region of Interest Statistics

CPU 0 cumulative IPC: 1.61962 instructions: 50000001 cycles: 30871374
L1D TOTAL     ACCESS:   16162844  HIT:   16162460  MISS:        384
L1D LOAD      ACCESS:    7620826  HIT:    7620507  MISS:        319
L1D RFO       ACCESS:    8542018  HIT:    8541953  MISS:         65
L1D PREFETCH  ACCESS:          0  HIT:          0  MISS:          0
L1D WRITEBACK ACCESS:          0  HIT:          0  MISS:          0
L1D PREFETCH  REQUESTED:          0  ISSUED:          0  USEFUL:          0  USELESS:          0
L1D AVERAGE MISS LATENCY: 37.5391 cycles
L1I TOTAL     ACCESS:   27166119  HIT:   26321355  MISS:     844764
L1I LOAD      ACCESS:    6943337  HIT:    6919581  MISS:      23756
L1I RFO       ACCESS:          0  HIT:          0  MISS:          0
L1I PREFETCH  ACCESS:   20222782  HIT:   19401774  MISS:     821008
L1I WRITEBACK ACCESS:          0  HIT:          0  MISS:          0
L1I PREFETCH  REQUESTED:   21771225  ISSUED:   21771225  USEFUL:     629486  USELESS:     191512
L1I AVERAGE MISS LATENCY: 5.97709 cycles
L2C TOTAL     ACCESS:     845335  HIT:     845170  MISS:        165
L2C LOAD      ACCESS:      13149  HIT:      13043  MISS:        106
L2C RFO       ACCESS:         65  HIT:         62  MISS:          3
L2C PREFETCH  ACCESS:     831934  HIT:     831879  MISS:         55
L2C WRITEBACK ACCESS:        187  HIT:        186  MISS:          1
L2C PREFETCH  REQUESTED:          0  ISSUED:          0  USEFUL:        255  USELESS:         11
L2C AVERAGE MISS LATENCY: 111.236 cycles
LLC TOTAL     ACCESS:        227  HIT:        130  MISS:         97
LLC LOAD      ACCESS:        106  HIT:         44  MISS:         62
LLC RFO       ACCESS:          3  HIT:          0  MISS:          3
LLC PREFETCH  ACCESS:         55  HIT:         23  MISS:         32
LLC WRITEBACK ACCESS:         63  HIT:         63  MISS:          0
LLC PREFETCH  REQUESTED:          0  ISSUED:          0  USEFUL:         13  USELESS:          5
LLC AVERAGE MISS LATENCY: 170.619 cycles

DRAM Statistics
 CHANNEL 0
 RQ ROW_BUFFER_HIT:         11  ROW_BUFFER_MISS:         86
 DBUS_CONGESTED:         47
 WQ ROW_BUFFER_HIT:          7  ROW_BUFFER_MISS:         35  FULL:          0

 AVG_CONGESTED_CYCLE: 6

CPU 0 Branch Prediction Accuracy: 96.0289% MPKI: 6.68682 Average ROB Occupancy at Mispredict: 186.262
Branch type MPKI
BRANCH_DIRECT_JUMP: 6e-05
BRANCH_INDIRECT: 0
BRANCH_CONDITIONAL: 6.50978
BRANCH_DIRECT_CALL: 0.00014
BRANCH_INDIRECT_CALL: 0.00026
BRANCH_RETURN: 0.17658

