
VirtualMemory physical capacity: 8589934592 num_ppages: 2097152
VirtualMemory page size: 4096 log2_page_size: 12
VirtualMemory initalizing ppage free list ... done
VirtualMemory shuffling ppage free list ... done


*** ChampSim Multicore Out-of-Order Simulator ***

Warmup Instructions: 50000000
Simulation Instructions: 50000000
Number of CPUs: 1
LLC sets: 2048
LLC ways: 16
Off-chip DRAM Size: 4096 MB Channels: 1 Width: 64-bit Data Rate: 3200 MT/s

CPU 0 runs ipc1_public/server_016.champsimtrace.xz
CPU 0 Bimodal branch predictor
Basic BTB sets: 1024 ways: 8 indirect buffer size: 4096 RAS size: 64
CPU 0 L1I next line prefetcher
Heartbeat CPU 0 instructions: 10000003 cycles: 2790832 heartbeat IPC: 3.58316 cumulative IPC: 3.58316 (Simulation time: 0 hr 12 min 32 sec) 
Heartbeat CPU 0 instructions: 20000002 cycles: 5571211 heartbeat IPC: 3.59663 cumulative IPC: 3.58988 (Simulation time: 0 hr 24 min 28 sec) 
Heartbeat CPU 0 instructions: 30000002 cycles: 8351197 heartbeat IPC: 3.59714 cumulative IPC: 3.5923 (Simulation time: 0 hr 33 min 46 sec) 
Heartbeat CPU 0 instructions: 40000000 cycles: 10920117 heartbeat IPC: 3.89269 cumulative IPC: 3.66296 (Simulation time: 0 hr 43 min 3 sec) 
Heartbeat CPU 0 instructions: 50000000 cycles: 13420117 heartbeat IPC: 4 cumulative IPC: 3.72575 (Simulation time: 0 hr 51 min 5 sec) 

Warmup complete CPU 0 instructions: 50000004 cycles: 13420118 (Simulation time: 0 hr 51 min 5 sec) 

Heartbeat CPU 0 instructions: 60000001 cycles: 16705936 heartbeat IPC: 3.04338 cumulative IPC: 3.04338 (Simulation time: 0 hr 59 min 16 sec) 
Heartbeat CPU 0 instructions: 70000000 cycles: 22655142 heartbeat IPC: 1.6809 cumulative IPC: 2.16567 (Simulation time: 1 hr 13 min 57 sec) 
Heartbeat CPU 0 instructions: 80000000 cycles: 28700518 heartbeat IPC: 1.65416 cumulative IPC: 1.9633 (Simulation time: 1 hr 27 min 40 sec) 
Heartbeat CPU 0 instructions: 90000001 cycles: 34584848 heartbeat IPC: 1.69943 cumulative IPC: 1.88994 (Simulation time: 1 hr 41 min 38 sec) 
Heartbeat CPU 0 instructions: 100000002 cycles: 40558283 heartbeat IPC: 1.67408 cumulative IPC: 1.84242 (Simulation time: 1 hr 55 min 0 sec) 
Finished CPU 0 instructions: 50000000 cycles: 27138168 cumulative IPC: 1.84242 (Simulation time: 1 hr 55 min 0 sec) 

ChampSim completed all CPUs

Region of Interest Statistics

CPU 0 cumulative IPC: 1.84242 instructions: 50000000 cycles: 27138168
L1D TOTAL     ACCESS:   12840222  HIT:   12011854  MISS:     828368
L1D LOAD      ACCESS:    7517257  HIT:    6915818  MISS:     601439
L1D RFO       ACCESS:    5322965  HIT:    5096036  MISS:     226929
L1D PREFETCH  ACCESS:          0  HIT:          0  MISS:          0
L1D WRITEBACK ACCESS:          0  HIT:          0  MISS:          0
L1D PREFETCH  REQUESTED:          0  ISSUED:          0  USEFUL:          0  USELESS:          0
L1D AVERAGE MISS LATENCY: 15.9468 cycles
L1I TOTAL     ACCESS:    7928752  HIT:    3074021  MISS:    4854731
L1I LOAD      ACCESS:    4316460  HIT:    2629410  MISS:    1687050
L1I RFO       ACCESS:          0  HIT:          0  MISS:          0
L1I PREFETCH  ACCESS:    3612292  HIT:     444611  MISS:    3167681
L1I WRITEBACK ACCESS:          0  HIT:          0  MISS:          0
L1I PREFETCH  REQUESTED:    4035483  ISSUED:    4035323  USEFUL:    1515569  USELESS:    1652105
L1I AVERAGE MISS LATENCY: 7.54314 cycles
L2C TOTAL     ACCESS:    6069375  HIT:    5499995  MISS:     569380
L2C LOAD      ACCESS:    2106545  HIT:    1912539  MISS:     194006
L2C RFO       ACCESS:     226929  HIT:     146433  MISS:      80496
L2C PREFETCH  ACCESS:    3349628  HIT:    3067481  MISS:     282147
L2C WRITEBACK ACCESS:     386273  HIT:     373542  MISS:      12731
L2C PREFETCH  REQUESTED:          0  ISSUED:          0  USEFUL:     192111  USELESS:      89777
L2C AVERAGE MISS LATENCY: 20.1964 cycles
LLC TOTAL     ACCESS:     677530  HIT:     652549  MISS:      24981
LLC LOAD      ACCESS:     194005  HIT:     184064  MISS:       9941
LLC RFO       ACCESS:      80495  HIT:      66304  MISS:      14191
LLC PREFETCH  ACCESS:     282147  HIT:     281349  MISS:        798
LLC WRITEBACK ACCESS:     120883  HIT:     120832  MISS:         51
LLC PREFETCH  REQUESTED:          0  ISSUED:          0  USEFUL:        370  USELESS:        259
LLC AVERAGE MISS LATENCY: 215.196 cycles
I-Shadow cache 408 bytes
Touched + WorthPF tables 6144 bytes 
MMA filter 174 bytes 
FNL filter 272 bytes 
TOTAL PREFETCHER STORAGE SIZE: 25174 bytes
CPU 0 L1I next line prefetcher final stats

DRAM Statistics
 CHANNEL 0
 RQ ROW_BUFFER_HIT:       8812  ROW_BUFFER_MISS:      16106
 DBUS_CONGESTED:      18989
 WQ ROW_BUFFER_HIT:       1135  ROW_BUFFER_MISS:      12010  FULL:          0

 AVG_CONGESTED_CYCLE: 6

CPU 0 Branch Prediction Accuracy: 95.485% MPKI: 8.19576 Average ROB Occupancy at Mispredict: 111.905
Branch type MPKI
BRANCH_DIRECT_JUMP: 0.07992
BRANCH_INDIRECT: 0.34456
BRANCH_CONDITIONAL: 7.25654
BRANCH_DIRECT_CALL: 0.12644
BRANCH_INDIRECT_CALL: 0.36648
BRANCH_RETURN: 0.02182

