
VirtualMemory physical capacity: 8589934592 num_ppages: 2097152
VirtualMemory page size: 4096 log2_page_size: 12
VirtualMemory initalizing ppage free list ... done
VirtualMemory shuffling ppage free list ... done


*** ChampSim Multicore Out-of-Order Simulator ***

Warmup Instructions: 50000000
Simulation Instructions: 50000000
Number of CPUs: 1
LLC sets: 2048
LLC ways: 16
Off-chip DRAM Size: 4096 MB Channels: 1 Width: 64-bit Data Rate: 3200 MT/s

CPU 0 runs ipc1_public/server_015.champsimtrace.xz
CPU 0 Bimodal branch predictor
Basic BTB sets: 1024 ways: 8 indirect buffer size: 4096 RAS size: 64
LHT KB: 31.56
SCC KB: 1.56
Total KB: 33.12
Heartbeat CPU 0 instructions: 10000003 cycles: 2651611 heartbeat IPC: 3.77129 cumulative IPC: 3.77129 (Simulation time: 0 hr 12 min 42 sec) 
Heartbeat CPU 0 instructions: 20000002 cycles: 5333204 heartbeat IPC: 3.72913 cumulative IPC: 3.75009 (Simulation time: 0 hr 27 min 24 sec) 
Heartbeat CPU 0 instructions: 30000001 cycles: 8000966 heartbeat IPC: 3.74846 cumulative IPC: 3.74955 (Simulation time: 0 hr 41 min 9 sec) 
Heartbeat CPU 0 instructions: 40000001 cycles: 10670820 heartbeat IPC: 3.74552 cumulative IPC: 3.74854 (Simulation time: 0 hr 55 min 27 sec) 
Heartbeat CPU 0 instructions: 50000002 cycles: 13340655 heartbeat IPC: 3.74555 cumulative IPC: 3.74794 (Simulation time: 1 hr 6 min 57 sec) 

Warmup complete CPU 0 instructions: 50000002 cycles: 13340655 (Simulation time: 1 hr 6 min 57 sec) 

Heartbeat CPU 0 instructions: 60000003 cycles: 19009651 heartbeat IPC: 1.76398 cumulative IPC: 1.76398 (Simulation time: 1 hr 21 min 3 sec) 
Heartbeat CPU 0 instructions: 70000001 cycles: 24698500 heartbeat IPC: 1.75782 cumulative IPC: 1.7609 (Simulation time: 1 hr 38 min 20 sec) 
Heartbeat CPU 0 instructions: 80000000 cycles: 30386880 heartbeat IPC: 1.75797 cumulative IPC: 1.75992 (Simulation time: 1 hr 53 min 43 sec) 
Heartbeat CPU 0 instructions: 90000000 cycles: 36076021 heartbeat IPC: 1.75773 cumulative IPC: 1.75937 (Simulation time: 2 hr 6 min 35 sec) 
Heartbeat CPU 0 instructions: 100000000 cycles: 41765184 heartbeat IPC: 1.75773 cumulative IPC: 1.75904 (Simulation time: 2 hr 12 min 57 sec) 
Finished CPU 0 instructions: 50000003 cycles: 28424530 cumulative IPC: 1.75904 (Simulation time: 2 hr 12 min 57 sec) 

ChampSim completed all CPUs

Region of Interest Statistics

CPU 0 cumulative IPC: 1.75904 instructions: 50000003 cycles: 28424530
L1D TOTAL     ACCESS:   16226217  HIT:   16225814  MISS:        403
L1D LOAD      ACCESS:    7523263  HIT:    7522918  MISS:        345
L1D RFO       ACCESS:    8702954  HIT:    8702896  MISS:         58
L1D PREFETCH  ACCESS:          0  HIT:          0  MISS:          0
L1D WRITEBACK ACCESS:          0  HIT:          0  MISS:          0
L1D PREFETCH  REQUESTED:          0  ISSUED:          0  USEFUL:          0  USELESS:          0
L1D AVERAGE MISS LATENCY: 37.2407 cycles
L1I TOTAL     ACCESS:   26406566  HIT:   24637036  MISS:    1769530
L1I LOAD      ACCESS:    7059913  HIT:    7017453  MISS:      42460
L1I RFO       ACCESS:          0  HIT:          0  MISS:          0
L1I PREFETCH  ACCESS:   19346653  HIT:   17619583  MISS:    1727070
L1I WRITEBACK ACCESS:          0  HIT:          0  MISS:          0
L1I PREFETCH  REQUESTED:   20693612  ISSUED:   20693612  USEFUL:    1339169  USELESS:     387891
L1I AVERAGE MISS LATENCY: 6.06305 cycles
L2C TOTAL     ACCESS:    1770118  HIT:    1769973  MISS:        145
L2C LOAD      ACCESS:      27526  HIT:      27430  MISS:         96
L2C RFO       ACCESS:         58  HIT:         51  MISS:          7
L2C PREFETCH  ACCESS:    1742350  HIT:    1742311  MISS:         39
L2C WRITEBACK ACCESS:        184  HIT:        181  MISS:          3
L2C PREFETCH  REQUESTED:          0  ISSUED:          0  USEFUL:        186  USELESS:         12
L2C AVERAGE MISS LATENCY: 111.083 cycles
LLC TOTAL     ACCESS:        196  HIT:        114  MISS:         82
LLC LOAD      ACCESS:         96  HIT:         35  MISS:         61
LLC RFO       ACCESS:          7  HIT:          4  MISS:          3
LLC PREFETCH  ACCESS:         39  HIT:         21  MISS:         18
LLC WRITEBACK ACCESS:         54  HIT:         54  MISS:          0
LLC PREFETCH  REQUESTED:          0  ISSUED:          0  USEFUL:         14  USELESS:          6
LLC AVERAGE MISS LATENCY: 177.378 cycles

DRAM Statistics
 CHANNEL 0
 RQ ROW_BUFFER_HIT:          6  ROW_BUFFER_MISS:         76
 DBUS_CONGESTED:         40
 WQ ROW_BUFFER_HIT:          8  ROW_BUFFER_MISS:         45  FULL:          0

 AVG_CONGESTED_CYCLE: 6

CPU 0 Branch Prediction Accuracy: 96.6172% MPKI: 5.7012 Average ROB Occupancy at Mispredict: 203.16
Branch type MPKI
BRANCH_DIRECT_JUMP: 2e-05
BRANCH_INDIRECT: 0
BRANCH_CONDITIONAL: 5.55508
BRANCH_DIRECT_CALL: 8e-05
BRANCH_INDIRECT_CALL: 0.00028
BRANCH_RETURN: 0.14574

