
VirtualMemory physical capacity: 8589934592 num_ppages: 2097152
VirtualMemory page size: 4096 log2_page_size: 12
VirtualMemory initalizing ppage free list ... done
VirtualMemory shuffling ppage free list ... done


*** ChampSim Multicore Out-of-Order Simulator ***

Warmup Instructions: 50000000
Simulation Instructions: 50000000
Number of CPUs: 1
LLC sets: 2048
LLC ways: 16
Off-chip DRAM Size: 4096 MB Channels: 1 Width: 64-bit Data Rate: 3200 MT/s

CPU 0 runs ipc1_public/server_019.champsimtrace.xz
CPU 0 Bimodal branch predictor
Basic BTB sets: 1024 ways: 8 indirect buffer size: 4096 RAS size: 64
Heartbeat CPU 0 instructions: 10000002 cycles: 3128497 heartbeat IPC: 3.19642 cumulative IPC: 3.19642 (Simulation time: 0 hr 13 min 34 sec) 
Heartbeat CPU 0 instructions: 20000003 cycles: 6259212 heartbeat IPC: 3.19416 cumulative IPC: 3.19529 (Simulation time: 0 hr 25 min 9 sec) 
Heartbeat CPU 0 instructions: 30000000 cycles: 9389716 heartbeat IPC: 3.19437 cumulative IPC: 3.19498 (Simulation time: 0 hr 35 min 37 sec) 
Heartbeat CPU 0 instructions: 40000003 cycles: 12518659 heartbeat IPC: 3.19597 cumulative IPC: 3.19523 (Simulation time: 0 hr 49 min 9 sec) 
Heartbeat CPU 0 instructions: 50000003 cycles: 15650817 heartbeat IPC: 3.19269 cumulative IPC: 3.19472 (Simulation time: 0 hr 55 min 14 sec) 

Warmup complete CPU 0 instructions: 50000003 cycles: 15650817 (Simulation time: 0 hr 55 min 14 sec) 

Heartbeat CPU 0 instructions: 60000000 cycles: 41092319 heartbeat IPC: 0.393058 cumulative IPC: 0.393058 (Simulation time: 1 hr 4 min 51 sec) 
Heartbeat CPU 0 instructions: 70000003 cycles: 66474206 heartbeat IPC: 0.393982 cumulative IPC: 0.39352 (Simulation time: 1 hr 10 min 10 sec) 
Heartbeat CPU 0 instructions: 80000004 cycles: 90891685 heartbeat IPC: 0.409543 cumulative IPC: 0.398719 (Simulation time: 1 hr 17 min 0 sec) 
Heartbeat CPU 0 instructions: 90000000 cycles: 113944626 heartbeat IPC: 0.433784 cumulative IPC: 0.406943 (Simulation time: 1 hr 24 min 38 sec) 
Heartbeat CPU 0 instructions: 100000001 cycles: 137022796 heartbeat IPC: 0.43331 cumulative IPC: 0.411957 (Simulation time: 1 hr 30 min 1 sec) 
Finished CPU 0 instructions: 50000000 cycles: 121371981 cumulative IPC: 0.411957 (Simulation time: 1 hr 30 min 1 sec) 

ChampSim completed all CPUs

Region of Interest Statistics

CPU 0 cumulative IPC: 0.411957 instructions: 50000000 cycles: 121371981
L1D TOTAL     ACCESS:   13582556  HIT:   11793775  MISS:    1788781
L1D LOAD      ACCESS:    7383741  HIT:    6507961  MISS:     875780
L1D RFO       ACCESS:    6198815  HIT:    5285814  MISS:     913001
L1D PREFETCH  ACCESS:          0  HIT:          0  MISS:          0
L1D WRITEBACK ACCESS:          0  HIT:          0  MISS:          0
L1D PREFETCH  REQUESTED:          0  ISSUED:          0  USEFUL:          0  USELESS:          0
L1D AVERAGE MISS LATENCY: 245.194 cycles
L1I TOTAL     ACCESS:   13642195  HIT:    4764317  MISS:    8877878
L1I LOAD      ACCESS:    4543390  HIT:    2418651  MISS:    2124739
L1I RFO       ACCESS:          0  HIT:          0  MISS:          0
L1I PREFETCH  ACCESS:    9098805  HIT:    2345666  MISS:    6753139
L1I WRITEBACK ACCESS:          0  HIT:          0  MISS:          0
L1I PREFETCH  REQUESTED:   10720520  ISSUED:   10720520  USEFUL:          0  USELESS:          0
L1I AVERAGE MISS LATENCY: 8.698 cycles
L2C TOTAL     ACCESS:   11828402  HIT:   10030375  MISS:    1798027
L2C LOAD      ACCESS:    2892971  HIT:    2161055  MISS:     731916
L2C RFO       ACCESS:     913000  HIT:      19895  MISS:     893105
L2C PREFETCH  ACCESS:    6860687  HIT:    6691615  MISS:     169072
L2C WRITEBACK ACCESS:    1161744  HIT:    1157810  MISS:       3934
L2C PREFETCH  REQUESTED:          0  ISSUED:          0  USEFUL:     145995  USELESS:      23108
L2C AVERAGE MISS LATENCY: 245.684 cycles
LLC TOTAL     ACCESS:    2903690  HIT:    1599374  MISS:    1304316
LLC LOAD      ACCESS:     731916  HIT:     220293  MISS:     511623
LLC RFO       ACCESS:     893105  HIT:     129679  MISS:     763426
LLC PREFETCH  ACCESS:     169072  HIT:     141312  MISS:      27760
LLC WRITEBACK ACCESS:    1109597  HIT:    1108090  MISS:       1507
LLC PREFETCH  REQUESTED:          0  ISSUED:          0  USEFUL:      16535  USELESS:      11239
LLC AVERAGE MISS LATENCY: 323.547 cycles

DRAM Statistics
 CHANNEL 0
 RQ ROW_BUFFER_HIT:     314331  ROW_BUFFER_MISS:     988266
 DBUS_CONGESTED:    1221147
 WQ ROW_BUFFER_HIT:     367583  ROW_BUFFER_MISS:     542318  FULL:          0

 AVG_CONGESTED_CYCLE: 6

CPU 0 Branch Prediction Accuracy: 95.162% MPKI: 8.185 Average ROB Occupancy at Mispredict: 217.81
Branch type MPKI
BRANCH_DIRECT_JUMP: 0.0028
BRANCH_INDIRECT: 0.00422
BRANCH_CONDITIONAL: 8.16006
BRANCH_DIRECT_CALL: 0.0072
BRANCH_INDIRECT_CALL: 0.01072
BRANCH_RETURN: 0

