
VirtualMemory physical capacity: 8589934592 num_ppages: 2097152
VirtualMemory page size: 4096 log2_page_size: 12
VirtualMemory initalizing ppage free list ... done
VirtualMemory shuffling ppage free list ... done


*** ChampSim Multicore Out-of-Order Simulator ***

Warmup Instructions: 50000000
Simulation Instructions: 50000000
Number of CPUs: 1
LLC sets: 2048
LLC ways: 16
Off-chip DRAM Size: 4096 MB Channels: 1 Width: 64-bit Data Rate: 3200 MT/s

CPU 0 runs ipc1_public/server_010.champsimtrace.xz
CPU 0 Bimodal branch predictor
Basic BTB sets: 1024 ways: 8 indirect buffer size: 4096 RAS size: 64
Heartbeat CPU 0 instructions: 10000000 cycles: 2754906 heartbeat IPC: 3.62989 cumulative IPC: 3.62989 (Simulation time: 0 hr 18 min 0 sec) 
Heartbeat CPU 0 instructions: 20000001 cycles: 5515966 heartbeat IPC: 3.6218 cumulative IPC: 3.62584 (Simulation time: 0 hr 35 min 29 sec) 
Heartbeat CPU 0 instructions: 30000001 cycles: 8265108 heartbeat IPC: 3.6375 cumulative IPC: 3.62972 (Simulation time: 0 hr 56 min 31 sec) 
Heartbeat CPU 0 instructions: 40000003 cycles: 11023022 heartbeat IPC: 3.62593 cumulative IPC: 3.62877 (Simulation time: 1 hr 16 min 13 sec) 
Heartbeat CPU 0 instructions: 50000000 cycles: 13780068 heartbeat IPC: 3.62707 cumulative IPC: 3.62843 (Simulation time: 1 hr 36 min 12 sec) 

Warmup complete CPU 0 instructions: 50000005 cycles: 13780069 (Simulation time: 1 hr 36 min 12 sec) 

Heartbeat CPU 0 instructions: 60000000 cycles: 19944944 heartbeat IPC: 1.62209 cumulative IPC: 1.62209 (Simulation time: 1 hr 55 min 50 sec) 
Heartbeat CPU 0 instructions: 70000000 cycles: 26122756 heartbeat IPC: 1.6187 cumulative IPC: 1.62039 (Simulation time: 2 hr 14 min 26 sec) 
Heartbeat CPU 0 instructions: 80000001 cycles: 32415888 heartbeat IPC: 1.58903 cumulative IPC: 1.6098 (Simulation time: 2 hr 31 min 20 sec) 
Heartbeat CPU 0 instructions: 90000000 cycles: 38462114 heartbeat IPC: 1.65392 cumulative IPC: 1.62061 (Simulation time: 2 hr 47 min 49 sec) 
Heartbeat CPU 0 instructions: 100000001 cycles: 49568460 heartbeat IPC: 0.900386 cumulative IPC: 1.3971 (Simulation time: 2 hr 58 min 13 sec) 
Finished CPU 0 instructions: 50000001 cycles: 35788392 cumulative IPC: 1.3971 (Simulation time: 2 hr 58 min 13 sec) 

ChampSim completed all CPUs

Region of Interest Statistics

CPU 0 cumulative IPC: 1.3971 instructions: 50000001 cycles: 35788392
L1D TOTAL     ACCESS:   13352485  HIT:   11750746  MISS:    1601739
L1D LOAD      ACCESS:    8528201  HIT:    7018999  MISS:    1509202
L1D RFO       ACCESS:    4824284  HIT:    4731747  MISS:      92537
L1D PREFETCH  ACCESS:          0  HIT:          0  MISS:          0
L1D WRITEBACK ACCESS:          0  HIT:          0  MISS:          0
L1D PREFETCH  REQUESTED:          0  ISSUED:          0  USEFUL:          0  USELESS:          0
L1D AVERAGE MISS LATENCY: 15.2648 cycles
L1I TOTAL     ACCESS:    4757572  HIT:    3622380  MISS:    1135192
L1I LOAD      ACCESS:    4757572  HIT:    3622380  MISS:    1135192
L1I RFO       ACCESS:          0  HIT:          0  MISS:          0
L1I PREFETCH  ACCESS:          0  HIT:          0  MISS:          0
L1I WRITEBACK ACCESS:          0  HIT:          0  MISS:          0
L1I PREFETCH  REQUESTED:          0  ISSUED:          0  USEFUL:          0  USELESS:          0
L1I AVERAGE MISS LATENCY: 11.7005 cycles
L2C TOTAL     ACCESS:    2976185  HIT:    2158826  MISS:     817359
L2C LOAD      ACCESS:    2644394  HIT:    1878354  MISS:     766040
L2C RFO       ACCESS:      92536  HIT:      42672  MISS:      49864
L2C PREFETCH  ACCESS:          0  HIT:          0  MISS:          0
L2C WRITEBACK ACCESS:     239255  HIT:     237800  MISS:       1455
L2C PREFETCH  REQUESTED:          0  ISSUED:          0  USEFUL:          0  USELESS:          0
L2C AVERAGE MISS LATENCY: 23.5193 cycles
LLC TOTAL     ACCESS:     950602  HIT:     890786  MISS:      59816
LLC LOAD      ACCESS:     766039  HIT:     715488  MISS:      50551
LLC RFO       ACCESS:      49863  HIT:      40638  MISS:       9225
LLC PREFETCH  ACCESS:          0  HIT:          0  MISS:          0
LLC WRITEBACK ACCESS:     134700  HIT:     134660  MISS:         40
LLC PREFETCH  REQUESTED:          0  ISSUED:          0  USEFUL:          0  USELESS:          0
LLC AVERAGE MISS LATENCY: 171.314 cycles

DRAM Statistics
 CHANNEL 0
 RQ ROW_BUFFER_HIT:       6309  ROW_BUFFER_MISS:      53465
 DBUS_CONGESTED:      26556
 WQ ROW_BUFFER_HIT:      11140  ROW_BUFFER_MISS:      36041  FULL:          0

 AVG_CONGESTED_CYCLE: 6

CPU 0 Branch Prediction Accuracy: 95.5049% MPKI: 9.02718 Average ROB Occupancy at Mispredict: 132.243
Branch type MPKI
BRANCH_DIRECT_JUMP: 0.1964
BRANCH_INDIRECT: 0.26728
BRANCH_CONDITIONAL: 6.78424
BRANCH_DIRECT_CALL: 0.38946
BRANCH_INDIRECT_CALL: 0.1179
BRANCH_RETURN: 1.2719

