
VirtualMemory physical capacity: 8589934592 num_ppages: 2097152
VirtualMemory page size: 4096 log2_page_size: 12
VirtualMemory initalizing ppage free list ... done
VirtualMemory shuffling ppage free list ... done


*** ChampSim Multicore Out-of-Order Simulator ***

Warmup Instructions: 50000000
Simulation Instructions: 50000000
Number of CPUs: 1
LLC sets: 2048
LLC ways: 16
Off-chip DRAM Size: 4096 MB Channels: 1 Width: 64-bit Data Rate: 3200 MT/s

CPU 0 runs ipc1_public/server_029.champsimtrace.xz
CPU 0 Bimodal branch predictor
Basic BTB sets: 1024 ways: 8 indirect buffer size: 4096 RAS size: 64
Heartbeat CPU 0 instructions: 10000002 cycles: 2913129 heartbeat IPC: 3.43274 cumulative IPC: 3.43274 (Simulation time: 0 hr 7 min 9 sec) 
Heartbeat CPU 0 instructions: 20000001 cycles: 5821490 heartbeat IPC: 3.43836 cumulative IPC: 3.43555 (Simulation time: 0 hr 13 min 3 sec) 
Heartbeat CPU 0 instructions: 30000003 cycles: 8731061 heartbeat IPC: 3.43693 cumulative IPC: 3.43601 (Simulation time: 0 hr 17 min 29 sec) 
Heartbeat CPU 0 instructions: 40000003 cycles: 11646910 heartbeat IPC: 3.42953 cumulative IPC: 3.43439 (Simulation time: 0 hr 23 min 40 sec) 
Heartbeat CPU 0 instructions: 50000001 cycles: 14564108 heartbeat IPC: 3.42795 cumulative IPC: 3.4331 (Simulation time: 0 hr 30 min 13 sec) 

Warmup complete CPU 0 instructions: 50000001 cycles: 14564108 (Simulation time: 0 hr 30 min 13 sec) 

Heartbeat CPU 0 instructions: 60000001 cycles: 21003034 heartbeat IPC: 1.55305 cumulative IPC: 1.55305 (Simulation time: 0 hr 44 min 21 sec) 
Heartbeat CPU 0 instructions: 70000000 cycles: 27621488 heartbeat IPC: 1.51093 cumulative IPC: 1.5317 (Simulation time: 0 hr 58 min 48 sec) 
Heartbeat CPU 0 instructions: 80000002 cycles: 34055848 heartbeat IPC: 1.55416 cumulative IPC: 1.53911 (Simulation time: 1 hr 9 min 22 sec) 
*** Reached end of trace: ipc1_public/server_029.champsimtrace.xz
Heartbeat CPU 0 instructions: 90000004 cycles: 40455288 heartbeat IPC: 1.56264 cumulative IPC: 1.54493 (Simulation time: 1 hr 22 min 29 sec) 
Heartbeat CPU 0 instructions: 100000004 cycles: 46806196 heartbeat IPC: 1.57458 cumulative IPC: 1.55077 (Simulation time: 1 hr 30 min 36 sec) 
Finished CPU 0 instructions: 50000003 cycles: 32242088 cumulative IPC: 1.55077 (Simulation time: 1 hr 30 min 36 sec) 

ChampSim completed all CPUs

Region of Interest Statistics

CPU 0 cumulative IPC: 1.55077 instructions: 50000003 cycles: 32242088
L1D TOTAL     ACCESS:   14145872  HIT:   12683736  MISS:    1462136
L1D LOAD      ACCESS:    7872752  HIT:    6720201  MISS:    1152551
L1D RFO       ACCESS:    6273120  HIT:    5963535  MISS:     309585
L1D PREFETCH  ACCESS:          0  HIT:          0  MISS:          0
L1D WRITEBACK ACCESS:          0  HIT:          0  MISS:          0
L1D PREFETCH  REQUESTED:          0  ISSUED:          0  USEFUL:          0  USELESS:          0
L1D AVERAGE MISS LATENCY: 12.4025 cycles
L1I TOTAL     ACCESS:    5598986  HIT:    2638149  MISS:    2960837
L1I LOAD      ACCESS:    5598986  HIT:    2638149  MISS:    2960837
L1I RFO       ACCESS:          0  HIT:          0  MISS:          0
L1I PREFETCH  ACCESS:          0  HIT:          0  MISS:          0
L1I WRITEBACK ACCESS:          0  HIT:          0  MISS:          0
L1I PREFETCH  REQUESTED:          0  ISSUED:          0  USEFUL:          0  USELESS:          0
L1I AVERAGE MISS LATENCY: 7.40327 cycles
L2C TOTAL     ACCESS:    5015771  HIT:    4450467  MISS:     565304
L2C LOAD      ACCESS:    4113388  HIT:    3612550  MISS:     500838
L2C RFO       ACCESS:     309585  HIT:     249913  MISS:      59672
L2C PREFETCH  ACCESS:          0  HIT:          0  MISS:          0
L2C WRITEBACK ACCESS:     592798  HIT:     588004  MISS:       4794
L2C PREFETCH  REQUESTED:          0  ISSUED:          0  USEFUL:          0  USELESS:          0
L2C AVERAGE MISS LATENCY: 21.0527 cycles
LLC TOTAL     ACCESS:     655609  HIT:     621596  MISS:      34013
LLC LOAD      ACCESS:     500838  HIT:     470499  MISS:      30339
LLC RFO       ACCESS:      59672  HIT:      56319  MISS:       3353
LLC PREFETCH  ACCESS:          0  HIT:          0  MISS:          0
LLC WRITEBACK ACCESS:      95099  HIT:      94778  MISS:        321
LLC PREFETCH  REQUESTED:          0  ISSUED:          0  USEFUL:          0  USELESS:          0
LLC AVERAGE MISS LATENCY: 168.626 cycles

DRAM Statistics
 CHANNEL 0
 RQ ROW_BUFFER_HIT:       8571  ROW_BUFFER_MISS:      25098
 DBUS_CONGESTED:       6826
 WQ ROW_BUFFER_HIT:        270  ROW_BUFFER_MISS:       3124  FULL:          0

 AVG_CONGESTED_CYCLE: 5

CPU 0 Branch Prediction Accuracy: 95.2837% MPKI: 8.87904 Average ROB Occupancy at Mispredict: 107.608
Branch type MPKI
BRANCH_DIRECT_JUMP: 0.00686
BRANCH_INDIRECT: 0.3223
BRANCH_CONDITIONAL: 8.0267
BRANCH_DIRECT_CALL: 0.01022
BRANCH_INDIRECT_CALL: 0.4202
BRANCH_RETURN: 0.09276

