
VirtualMemory physical capacity: 8589934592 num_ppages: 2097152
VirtualMemory page size: 4096 log2_page_size: 12
VirtualMemory initalizing ppage free list ... done
VirtualMemory shuffling ppage free list ... done


*** ChampSim Multicore Out-of-Order Simulator ***

Warmup Instructions: 50000000
Simulation Instructions: 50000000
Number of CPUs: 1
LLC sets: 2048
LLC ways: 16
Off-chip DRAM Size: 4096 MB Channels: 1 Width: 64-bit Data Rate: 3200 MT/s

CPU 0 runs ipc1_public/server_030.champsimtrace.xz
CPU 0 Bimodal branch predictor
Basic BTB sets: 1024 ways: 8 indirect buffer size: 4096 RAS size: 64
Heartbeat CPU 0 instructions: 10000000 cycles: 2813064 heartbeat IPC: 3.55484 cumulative IPC: 3.55484 (Simulation time: 0 hr 23 min 58 sec) 
Heartbeat CPU 0 instructions: 20000001 cycles: 5615191 heartbeat IPC: 3.56872 cumulative IPC: 3.56177 (Simulation time: 0 hr 46 min 35 sec) 
Heartbeat CPU 0 instructions: 30000000 cycles: 8419014 heartbeat IPC: 3.56656 cumulative IPC: 3.56336 (Simulation time: 1 hr 10 min 0 sec) 
Heartbeat CPU 0 instructions: 40000003 cycles: 11218455 heartbeat IPC: 3.57214 cumulative IPC: 3.56555 (Simulation time: 1 hr 26 min 48 sec) 
Heartbeat CPU 0 instructions: 50000001 cycles: 14014948 heartbeat IPC: 3.57591 cumulative IPC: 3.56762 (Simulation time: 1 hr 40 min 23 sec) 

Warmup complete CPU 0 instructions: 50000001 cycles: 14014948 (Simulation time: 1 hr 40 min 23 sec) 

Heartbeat CPU 0 instructions: 60000000 cycles: 19830034 heartbeat IPC: 1.71966 cumulative IPC: 1.71966 (Simulation time: 1 hr 58 min 3 sec) 
Heartbeat CPU 0 instructions: 70000001 cycles: 25670597 heartbeat IPC: 1.71216 cumulative IPC: 1.71591 (Simulation time: 2 hr 9 min 47 sec) 
Heartbeat CPU 0 instructions: 80000000 cycles: 31449593 heartbeat IPC: 1.7304 cumulative IPC: 1.72071 (Simulation time: 2 hr 19 min 58 sec) 
*** Reached end of trace: ipc1_public/server_030.champsimtrace.xz
Heartbeat CPU 0 instructions: 90000003 cycles: 37269406 heartbeat IPC: 1.71827 cumulative IPC: 1.7201 (Simulation time: 2 hr 33 min 48 sec) 
Heartbeat CPU 0 instructions: 100000003 cycles: 43008238 heartbeat IPC: 1.74251 cumulative IPC: 1.72454 (Simulation time: 2 hr 49 min 21 sec) 
Finished CPU 0 instructions: 50000002 cycles: 28993290 cumulative IPC: 1.72454 (Simulation time: 2 hr 49 min 21 sec) 

ChampSim completed all CPUs

Region of Interest Statistics

CPU 0 cumulative IPC: 1.72454 instructions: 50000002 cycles: 28993290
L1D TOTAL     ACCESS:   14099986  HIT:   12639128  MISS:    1460858
L1D LOAD      ACCESS:    7774954  HIT:    6621825  MISS:    1153129
L1D RFO       ACCESS:    6325032  HIT:    6017303  MISS:     307729
L1D PREFETCH  ACCESS:          0  HIT:          0  MISS:          0
L1D WRITEBACK ACCESS:          0  HIT:          0  MISS:          0
L1D PREFETCH  REQUESTED:          0  ISSUED:          0  USEFUL:          0  USELESS:          0
L1D AVERAGE MISS LATENCY: 11.0931 cycles
L1I TOTAL     ACCESS:   14481313  HIT:    8917915  MISS:    5563398
L1I LOAD      ACCESS:    5962212  HIT:    4732950  MISS:    1229262
L1I RFO       ACCESS:          0  HIT:          0  MISS:          0
L1I PREFETCH  ACCESS:    8519101  HIT:    4184965  MISS:    4334136
L1I WRITEBACK ACCESS:          0  HIT:          0  MISS:          0
L1I PREFETCH  REQUESTED:    9943034  ISSUED:    9943034  USEFUL:    2495729  USELESS:    1838394
L1I AVERAGE MISS LATENCY: 7.91136 cycles
L2C TOTAL     ACCESS:    7619656  HIT:    6401585  MISS:    1218071
L2C LOAD      ACCESS:    2150059  HIT:    1624667  MISS:     525392
L2C RFO       ACCESS:     307724  HIT:     217203  MISS:      90521
L2C PREFETCH  ACCESS:    4566443  HIT:    3988128  MISS:     578315
L2C WRITEBACK ACCESS:     595430  HIT:     571587  MISS:      23843
L2C PREFETCH  REQUESTED:          0  ISSUED:          0  USEFUL:     264263  USELESS:     314021
L2C AVERAGE MISS LATENCY: 12.0906 cycles
LLC TOTAL     ACCESS:    1363461  HIT:    1353045  MISS:      10416
LLC LOAD      ACCESS:     525387  HIT:     517397  MISS:       7990
LLC RFO       ACCESS:      90521  HIT:      88785  MISS:       1736
LLC PREFETCH  ACCESS:     578315  HIT:     577644  MISS:        671
LLC WRITEBACK ACCESS:     169238  HIT:     169219  MISS:         19
LLC PREFETCH  REQUESTED:          0  ISSUED:          0  USEFUL:        631  USELESS:        220
LLC AVERAGE MISS LATENCY: 152.697 cycles

DRAM Statistics
 CHANNEL 0
 RQ ROW_BUFFER_HIT:       3327  ROW_BUFFER_MISS:       7070
 DBUS_CONGESTED:       1900
 WQ ROW_BUFFER_HIT:         88  ROW_BUFFER_MISS:       1022  FULL:          0

 AVG_CONGESTED_CYCLE: 6

CPU 0 Branch Prediction Accuracy: 95.3781% MPKI: 8.66334 Average ROB Occupancy at Mispredict: 134.284
Branch type MPKI
BRANCH_DIRECT_JUMP: 0.02916
BRANCH_INDIRECT: 0.3573
BRANCH_CONDITIONAL: 7.70228
BRANCH_DIRECT_CALL: 0.043
BRANCH_INDIRECT_CALL: 0.44646
BRANCH_RETURN: 0.08514

