
VirtualMemory physical capacity: 8589934592 num_ppages: 2097152
VirtualMemory page size: 4096 log2_page_size: 12
VirtualMemory initalizing ppage free list ... done
VirtualMemory shuffling ppage free list ... done


*** ChampSim Multicore Out-of-Order Simulator ***

Warmup Instructions: 50000000
Simulation Instructions: 50000000
Number of CPUs: 1
LLC sets: 2048
LLC ways: 16
Off-chip DRAM Size: 4096 MB Channels: 1 Width: 64-bit Data Rate: 3200 MT/s

CPU 0 runs ipc1_public/server_031.champsimtrace.xz
CPU 0 Bimodal branch predictor
Basic BTB sets: 1024 ways: 8 indirect buffer size: 4096 RAS size: 64
Heartbeat CPU 0 instructions: 10000004 cycles: 2914496 heartbeat IPC: 3.43113 cumulative IPC: 3.43113 (Simulation time: 0 hr 10 min 23 sec) 
Heartbeat CPU 0 instructions: 20000004 cycles: 5827135 heartbeat IPC: 3.43331 cumulative IPC: 3.43222 (Simulation time: 0 hr 18 min 5 sec) 
Heartbeat CPU 0 instructions: 30000001 cycles: 8741041 heartbeat IPC: 3.43182 cumulative IPC: 3.43209 (Simulation time: 0 hr 24 min 59 sec) 
Heartbeat CPU 0 instructions: 40000004 cycles: 11649710 heartbeat IPC: 3.438 cumulative IPC: 3.43356 (Simulation time: 0 hr 33 min 8 sec) 
Heartbeat CPU 0 instructions: 50000000 cycles: 14557677 heartbeat IPC: 3.43883 cumulative IPC: 3.43461 (Simulation time: 0 hr 39 min 46 sec) 

Warmup complete CPU 0 instructions: 50000005 cycles: 14557678 (Simulation time: 0 hr 39 min 46 sec) 

Heartbeat CPU 0 instructions: 60000001 cycles: 21099291 heartbeat IPC: 1.52867 cumulative IPC: 1.52867 (Simulation time: 0 hr 49 min 29 sec) 
Heartbeat CPU 0 instructions: 70000002 cycles: 27715231 heartbeat IPC: 1.5115 cumulative IPC: 1.52004 (Simulation time: 0 hr 59 min 0 sec) 
*** Reached end of trace: ipc1_public/server_031.champsimtrace.xz
Heartbeat CPU 0 instructions: 80000002 cycles: 34179285 heartbeat IPC: 1.54702 cumulative IPC: 1.52893 (Simulation time: 1 hr 10 min 11 sec) 
Heartbeat CPU 0 instructions: 90000001 cycles: 40704718 heartbeat IPC: 1.53247 cumulative IPC: 1.52981 (Simulation time: 1 hr 20 min 32 sec) 
Heartbeat CPU 0 instructions: 100000000 cycles: 47196653 heartbeat IPC: 1.54037 cumulative IPC: 1.53191 (Simulation time: 1 hr 29 min 5 sec) 
Finished CPU 0 instructions: 50000000 cycles: 32638985 cumulative IPC: 1.53191 (Simulation time: 1 hr 29 min 5 sec) 

ChampSim completed all CPUs

Region of Interest Statistics

CPU 0 cumulative IPC: 1.53191 instructions: 50000000 cycles: 32638985
L1D TOTAL     ACCESS:   14481182  HIT:   13243553  MISS:    1237629
L1D LOAD      ACCESS:    7955260  HIT:    7019437  MISS:     935823
L1D RFO       ACCESS:    6525922  HIT:    6224116  MISS:     301806
L1D PREFETCH  ACCESS:          0  HIT:          0  MISS:          0
L1D WRITEBACK ACCESS:          0  HIT:          0  MISS:          0
L1D PREFETCH  REQUESTED:          0  ISSUED:          0  USEFUL:          0  USELESS:          0
L1D AVERAGE MISS LATENCY: 12.8275 cycles
L1I TOTAL     ACCESS:    5783999  HIT:    2773313  MISS:    3010686
L1I LOAD      ACCESS:    5783999  HIT:    2773313  MISS:    3010686
L1I RFO       ACCESS:          0  HIT:          0  MISS:          0
L1I PREFETCH  ACCESS:          0  HIT:          0  MISS:          0
L1I WRITEBACK ACCESS:          0  HIT:          0  MISS:          0
L1I PREFETCH  REQUESTED:          0  ISSUED:          0  USEFUL:          0  USELESS:          0
L1I AVERAGE MISS LATENCY: 7.07658 cycles
L2C TOTAL     ACCESS:    4822948  HIT:    4404498  MISS:     418450
L2C LOAD      ACCESS:    3946507  HIT:    3571425  MISS:     375082
L2C RFO       ACCESS:     301806  HIT:     266202  MISS:      35604
L2C PREFETCH  ACCESS:          0  HIT:          0  MISS:          0
L2C WRITEBACK ACCESS:     574635  HIT:     566871  MISS:       7764
L2C PREFETCH  REQUESTED:          0  ISSUED:          0  USEFUL:          0  USELESS:          0
L2C AVERAGE MISS LATENCY: 24.8103 cycles
LLC TOTAL     ACCESS:     480025  HIT:     443797  MISS:      36228
LLC LOAD      ACCESS:     375082  HIT:     343201  MISS:      31881
LLC RFO       ACCESS:      35601  HIT:      31506  MISS:       4095
LLC PREFETCH  ACCESS:          0  HIT:          0  MISS:          0
LLC WRITEBACK ACCESS:      69342  HIT:      69090  MISS:        252
LLC PREFETCH  REQUESTED:          0  ISSUED:          0  USEFUL:          0  USELESS:          0
LLC AVERAGE MISS LATENCY: 161.869 cycles

DRAM Statistics
 CHANNEL 0
 RQ ROW_BUFFER_HIT:       9399  ROW_BUFFER_MISS:      26564
 DBUS_CONGESTED:       7630
 WQ ROW_BUFFER_HIT:        265  ROW_BUFFER_MISS:       3182  FULL:          0

 AVG_CONGESTED_CYCLE: 6

CPU 0 Branch Prediction Accuracy: 94.9911% MPKI: 9.36092 Average ROB Occupancy at Mispredict: 111.117
Branch type MPKI
BRANCH_DIRECT_JUMP: 0.00974
BRANCH_INDIRECT: 0.3386
BRANCH_CONDITIONAL: 8.46726
BRANCH_DIRECT_CALL: 0.0154
BRANCH_INDIRECT_CALL: 0.43496
BRANCH_RETURN: 0.09496

