
VirtualMemory physical capacity: 8589934592 num_ppages: 2097152
VirtualMemory page size: 4096 log2_page_size: 12
VirtualMemory initalizing ppage free list ... done
VirtualMemory shuffling ppage free list ... done


*** ChampSim Multicore Out-of-Order Simulator ***

Warmup Instructions: 50000000
Simulation Instructions: 50000000
Number of CPUs: 1
LLC sets: 2048
LLC ways: 16
Off-chip DRAM Size: 4096 MB Channels: 1 Width: 64-bit Data Rate: 3200 MT/s

CPU 0 runs ipc1_public/server_012.champsimtrace.xz
CPU 0 Bimodal branch predictor
Basic BTB sets: 1024 ways: 8 indirect buffer size: 4096 RAS size: 64
Heartbeat CPU 0 instructions: 10000001 cycles: 2943471 heartbeat IPC: 3.39735 cumulative IPC: 3.39735 (Simulation time: 0 hr 6 min 51 sec) 
Heartbeat CPU 0 instructions: 20000000 cycles: 5886884 heartbeat IPC: 3.39742 cumulative IPC: 3.39738 (Simulation time: 0 hr 17 min 0 sec) 
Heartbeat CPU 0 instructions: 30000004 cycles: 8822248 heartbeat IPC: 3.40673 cumulative IPC: 3.40049 (Simulation time: 0 hr 28 min 21 sec) 
Heartbeat CPU 0 instructions: 40000002 cycles: 11760573 heartbeat IPC: 3.4033 cumulative IPC: 3.4012 (Simulation time: 0 hr 38 min 14 sec) 
Heartbeat CPU 0 instructions: 50000002 cycles: 14698858 heartbeat IPC: 3.40335 cumulative IPC: 3.40162 (Simulation time: 0 hr 49 min 7 sec) 

Warmup complete CPU 0 instructions: 50000002 cycles: 14698858 (Simulation time: 0 hr 49 min 7 sec) 

Heartbeat CPU 0 instructions: 60000002 cycles: 21286827 heartbeat IPC: 1.51792 cumulative IPC: 1.51792 (Simulation time: 1 hr 4 min 44 sec) 
Heartbeat CPU 0 instructions: 70000001 cycles: 27932949 heartbeat IPC: 1.50464 cumulative IPC: 1.51125 (Simulation time: 1 hr 20 min 48 sec) 
Heartbeat CPU 0 instructions: 80000001 cycles: 34617465 heartbeat IPC: 1.49599 cumulative IPC: 1.50613 (Simulation time: 1 hr 35 min 56 sec) 
Heartbeat CPU 0 instructions: 90000000 cycles: 41452263 heartbeat IPC: 1.4631 cumulative IPC: 1.49514 (Simulation time: 1 hr 48 min 8 sec) 
Heartbeat CPU 0 instructions: 100000002 cycles: 48230758 heartbeat IPC: 1.47525 cumulative IPC: 1.49112 (Simulation time: 1 hr 59 min 44 sec) 
Finished CPU 0 instructions: 50000000 cycles: 33531900 cumulative IPC: 1.49112 (Simulation time: 1 hr 59 min 44 sec) 

ChampSim completed all CPUs

Region of Interest Statistics

CPU 0 cumulative IPC: 1.49112 instructions: 50000000 cycles: 33531900
L1D TOTAL     ACCESS:   12362592  HIT:   11726643  MISS:     635949
L1D LOAD      ACCESS:    7282840  HIT:    6737391  MISS:     545449
L1D RFO       ACCESS:    5079752  HIT:    4989252  MISS:      90500
L1D PREFETCH  ACCESS:          0  HIT:          0  MISS:          0
L1D WRITEBACK ACCESS:          0  HIT:          0  MISS:          0
L1D PREFETCH  REQUESTED:          0  ISSUED:          0  USEFUL:          0  USELESS:          0
L1D AVERAGE MISS LATENCY: 29.4147 cycles
L1I TOTAL     ACCESS:    4925074  HIT:    1670626  MISS:    3254448
L1I LOAD      ACCESS:    4925074  HIT:    1670626  MISS:    3254448
L1I RFO       ACCESS:          0  HIT:          0  MISS:          0
L1I PREFETCH  ACCESS:          0  HIT:          0  MISS:          0
L1I WRITEBACK ACCESS:          0  HIT:          0  MISS:          0
L1I PREFETCH  REQUESTED:          0  ISSUED:          0  USEFUL:          0  USELESS:          0
L1I AVERAGE MISS LATENCY: 8.35756 cycles
L2C TOTAL     ACCESS:    4145078  HIT:    3227467  MISS:     917611
L2C LOAD      ACCESS:    3799897  HIT:    2937697  MISS:     862200
L2C RFO       ACCESS:      90500  HIT:      36956  MISS:      53544
L2C PREFETCH  ACCESS:          0  HIT:          0  MISS:          0
L2C WRITEBACK ACCESS:     254681  HIT:     252814  MISS:       1867
L2C PREFETCH  REQUESTED:          0  ISSUED:          0  USEFUL:          0  USELESS:          0
L2C AVERAGE MISS LATENCY: 23.7944 cycles
LLC TOTAL     ACCESS:    1065288  HIT:     995766  MISS:      69522
LLC LOAD      ACCESS:     862200  HIT:     803244  MISS:      58956
LLC RFO       ACCESS:      53544  HIT:      43054  MISS:      10490
LLC PREFETCH  ACCESS:          0  HIT:          0  MISS:          0
LLC WRITEBACK ACCESS:     149544  HIT:     149468  MISS:         76
LLC PREFETCH  REQUESTED:          0  ISSUED:          0  USEFUL:          0  USELESS:          0
LLC AVERAGE MISS LATENCY: 169.144 cycles

DRAM Statistics
 CHANNEL 0
 RQ ROW_BUFFER_HIT:       7320  ROW_BUFFER_MISS:      62126
 DBUS_CONGESTED:      29822
 WQ ROW_BUFFER_HIT:      12090  ROW_BUFFER_MISS:      40093  FULL:          0

 AVG_CONGESTED_CYCLE: 6

CPU 0 Branch Prediction Accuracy: 95.221% MPKI: 8.88774 Average ROB Occupancy at Mispredict: 98.4738
Branch type MPKI
BRANCH_DIRECT_JUMP: 0.2135
BRANCH_INDIRECT: 0.29734
BRANCH_CONDITIONAL: 6.3896
BRANCH_DIRECT_CALL: 0.41884
BRANCH_INDIRECT_CALL: 0.13318
BRANCH_RETURN: 1.43528

