
VirtualMemory physical capacity: 8589934592 num_ppages: 2097152
VirtualMemory page size: 4096 log2_page_size: 12
VirtualMemory initalizing ppage free list ... done
VirtualMemory shuffling ppage free list ... done


*** ChampSim Multicore Out-of-Order Simulator ***

Warmup Instructions: 50000000
Simulation Instructions: 50000000
Number of CPUs: 1
LLC sets: 2048
LLC ways: 16
Off-chip DRAM Size: 4096 MB Channels: 1 Width: 64-bit Data Rate: 3200 MT/s

CPU 0 runs ipc1_public/server_028.champsimtrace.xz
CPU 0 Bimodal branch predictor
Basic BTB sets: 1024 ways: 8 indirect buffer size: 4096 RAS size: 64
Heartbeat CPU 0 instructions: 10000003 cycles: 2885395 heartbeat IPC: 3.46573 cumulative IPC: 3.46573 (Simulation time: 0 hr 10 min 16 sec) 
Heartbeat CPU 0 instructions: 20000000 cycles: 5769854 heartbeat IPC: 3.46685 cumulative IPC: 3.46629 (Simulation time: 0 hr 19 min 12 sec) 
Heartbeat CPU 0 instructions: 30000003 cycles: 8652128 heartbeat IPC: 3.46948 cumulative IPC: 3.46736 (Simulation time: 0 hr 24 min 43 sec) 
Heartbeat CPU 0 instructions: 40000004 cycles: 11535750 heartbeat IPC: 3.46786 cumulative IPC: 3.46748 (Simulation time: 0 hr 30 min 16 sec) 
Heartbeat CPU 0 instructions: 50000000 cycles: 14418089 heartbeat IPC: 3.4694 cumulative IPC: 3.46787 (Simulation time: 0 hr 35 min 19 sec) 

Warmup complete CPU 0 instructions: 50000005 cycles: 14418090 (Simulation time: 0 hr 35 min 19 sec) 

Heartbeat CPU 0 instructions: 60000000 cycles: 20757559 heartbeat IPC: 1.57742 cumulative IPC: 1.57742 (Simulation time: 0 hr 42 min 56 sec) 
Heartbeat CPU 0 instructions: 70000003 cycles: 27073898 heartbeat IPC: 1.5832 cumulative IPC: 1.5803 (Simulation time: 0 hr 50 min 30 sec) 
Heartbeat CPU 0 instructions: 80000000 cycles: 33395133 heartbeat IPC: 1.58197 cumulative IPC: 1.58086 (Simulation time: 0 hr 59 min 4 sec) 
*** Reached end of trace: ipc1_public/server_028.champsimtrace.xz
Heartbeat CPU 0 instructions: 90000002 cycles: 39741626 heartbeat IPC: 1.57567 cumulative IPC: 1.57956 (Simulation time: 1 hr 4 min 16 sec) 
Heartbeat CPU 0 instructions: 100000002 cycles: 46029894 heartbeat IPC: 1.59026 cumulative IPC: 1.58169 (Simulation time: 1 hr 9 min 20 sec) 
Finished CPU 0 instructions: 50000002 cycles: 31611805 cumulative IPC: 1.58169 (Simulation time: 1 hr 9 min 20 sec) 

ChampSim completed all CPUs

Region of Interest Statistics

CPU 0 cumulative IPC: 1.58169 instructions: 50000002 cycles: 31611805
L1D TOTAL     ACCESS:   14123193  HIT:   12682887  MISS:    1440306
L1D LOAD      ACCESS:    7836936  HIT:    6702430  MISS:    1134506
L1D RFO       ACCESS:    6286257  HIT:    5980457  MISS:     305800
L1D PREFETCH  ACCESS:          0  HIT:          0  MISS:          0
L1D WRITEBACK ACCESS:          0  HIT:          0  MISS:          0
L1D PREFETCH  REQUESTED:          0  ISSUED:          0  USEFUL:          0  USELESS:          0
L1D AVERAGE MISS LATENCY: 11.718 cycles
L1I TOTAL     ACCESS:    5610135  HIT:    2731068  MISS:    2879067
L1I LOAD      ACCESS:    5610135  HIT:    2731068  MISS:    2879067
L1I RFO       ACCESS:          0  HIT:          0  MISS:          0
L1I PREFETCH  ACCESS:          0  HIT:          0  MISS:          0
L1I WRITEBACK ACCESS:          0  HIT:          0  MISS:          0
L1I PREFETCH  REQUESTED:          0  ISSUED:          0  USEFUL:          0  USELESS:          0
L1I AVERAGE MISS LATENCY: 6.91044 cycles
L2C TOTAL     ACCESS:    4905499  HIT:    4483615  MISS:     421884
L2C LOAD      ACCESS:    4013568  HIT:    3632100  MISS:     381468
L2C RFO       ACCESS:     305800  HIT:     268290  MISS:      37510
L2C PREFETCH  ACCESS:          0  HIT:          0  MISS:          0
L2C WRITEBACK ACCESS:     586131  HIT:     583225  MISS:       2906
L2C PREFETCH  REQUESTED:          0  ISSUED:          0  USEFUL:          0  USELESS:          0
L2C AVERAGE MISS LATENCY: 22.0265 cycles
LLC TOTAL     ACCESS:     477627  HIT:     448496  MISS:      29131
LLC LOAD      ACCESS:     381467  HIT:     354391  MISS:      27076
LLC RFO       ACCESS:      37510  HIT:      35584  MISS:       1926
LLC PREFETCH  ACCESS:          0  HIT:          0  MISS:          0
LLC WRITEBACK ACCESS:      58650  HIT:      58521  MISS:        129
LLC PREFETCH  REQUESTED:          0  ISSUED:          0  USEFUL:          0  USELESS:          0
LLC AVERAGE MISS LATENCY: 160.781 cycles

DRAM Statistics
 CHANNEL 0
 RQ ROW_BUFFER_HIT:       7056  ROW_BUFFER_MISS:      21946
 DBUS_CONGESTED:       5087
 WQ ROW_BUFFER_HIT:        153  ROW_BUFFER_MISS:       2437  FULL:          0

 AVG_CONGESTED_CYCLE: 6

CPU 0 Branch Prediction Accuracy: 95.23% MPKI: 8.9763 Average ROB Occupancy at Mispredict: 113.362
Branch type MPKI
BRANCH_DIRECT_JUMP: 0.00834
BRANCH_INDIRECT: 0.3423
BRANCH_CONDITIONAL: 8.08252
BRANCH_DIRECT_CALL: 0.01076
BRANCH_INDIRECT_CALL: 0.4328
BRANCH_RETURN: 0.09958

