
VirtualMemory physical capacity: 8589934592 num_ppages: 2097152
VirtualMemory page size: 4096 log2_page_size: 12
VirtualMemory initalizing ppage free list ... done
VirtualMemory shuffling ppage free list ... done


*** ChampSim Multicore Out-of-Order Simulator ***

Warmup Instructions: 50000000
Simulation Instructions: 50000000
Number of CPUs: 1
LLC sets: 2048
LLC ways: 16
Off-chip DRAM Size: 4096 MB Channels: 1 Width: 64-bit Data Rate: 3200 MT/s

CPU 0 runs ipc1_public/server_033.champsimtrace.xz
CPU 0 Bimodal branch predictor
Basic BTB sets: 1024 ways: 8 indirect buffer size: 4096 RAS size: 64
Heartbeat CPU 0 instructions: 10000004 cycles: 2926173 heartbeat IPC: 3.41743 cumulative IPC: 3.41743 (Simulation time: 0 hr 17 min 20 sec) 
Heartbeat CPU 0 instructions: 20000000 cycles: 5850619 heartbeat IPC: 3.41945 cumulative IPC: 3.41844 (Simulation time: 0 hr 36 min 14 sec) 
Heartbeat CPU 0 instructions: 30000004 cycles: 8762717 heartbeat IPC: 3.43395 cumulative IPC: 3.4236 (Simulation time: 0 hr 54 min 8 sec) 
Heartbeat CPU 0 instructions: 40000000 cycles: 11686942 heartbeat IPC: 3.41971 cumulative IPC: 3.42262 (Simulation time: 1 hr 12 min 4 sec) 
Heartbeat CPU 0 instructions: 50000002 cycles: 14611294 heartbeat IPC: 3.41956 cumulative IPC: 3.42201 (Simulation time: 1 hr 29 min 16 sec) 

Warmup complete CPU 0 instructions: 50000002 cycles: 14611294 (Simulation time: 1 hr 29 min 16 sec) 

Heartbeat CPU 0 instructions: 60000004 cycles: 20371502 heartbeat IPC: 1.73605 cumulative IPC: 1.73605 (Simulation time: 1 hr 48 min 51 sec) 
Heartbeat CPU 0 instructions: 70000002 cycles: 26121692 heartbeat IPC: 1.73907 cumulative IPC: 1.73756 (Simulation time: 2 hr 8 min 13 sec) 
Heartbeat CPU 0 instructions: 80000000 cycles: 32513675 heartbeat IPC: 1.56446 cumulative IPC: 1.67575 (Simulation time: 2 hr 28 min 17 sec) 
Heartbeat CPU 0 instructions: 90000000 cycles: 38391347 heartbeat IPC: 1.70135 cumulative IPC: 1.68208 (Simulation time: 2 hr 45 min 36 sec) 
Heartbeat CPU 0 instructions: 100000001 cycles: 44149424 heartbeat IPC: 1.73669 cumulative IPC: 1.69273 (Simulation time: 2 hr 55 min 37 sec) 
Finished CPU 0 instructions: 50000002 cycles: 29538131 cumulative IPC: 1.69273 (Simulation time: 2 hr 55 min 37 sec) 

ChampSim completed all CPUs

Region of Interest Statistics

CPU 0 cumulative IPC: 1.69273 instructions: 50000002 cycles: 29538131
L1D TOTAL     ACCESS:   13589928  HIT:   12953237  MISS:     636691
L1D LOAD      ACCESS:    7220236  HIT:    6677873  MISS:     542363
L1D RFO       ACCESS:    6369692  HIT:    6275364  MISS:      94328
L1D PREFETCH  ACCESS:          0  HIT:          0  MISS:          0
L1D WRITEBACK ACCESS:          0  HIT:          0  MISS:          0
L1D PREFETCH  REQUESTED:          0  ISSUED:          0  USEFUL:          0  USELESS:          0
L1D AVERAGE MISS LATENCY: 14.7354 cycles
L1I TOTAL     ACCESS:    6080283  HIT:    2724354  MISS:    3355929
L1I LOAD      ACCESS:    6080283  HIT:    2724354  MISS:    3355929
L1I RFO       ACCESS:          0  HIT:          0  MISS:          0
L1I PREFETCH  ACCESS:          0  HIT:          0  MISS:          0
L1I WRITEBACK ACCESS:          0  HIT:          0  MISS:          0
L1I PREFETCH  REQUESTED:          0  ISSUED:          0  USEFUL:          0  USELESS:          0
L1I AVERAGE MISS LATENCY: 6.19203 cycles
L2C TOTAL     ACCESS:    4232677  HIT:    4019648  MISS:     213029
L2C LOAD      ACCESS:    3898291  HIT:    3714279  MISS:     184012
L2C RFO       ACCESS:      94328  HIT:      68531  MISS:      25797
L2C PREFETCH  ACCESS:          0  HIT:          0  MISS:          0
L2C WRITEBACK ACCESS:     240058  HIT:     236838  MISS:       3220
L2C PREFETCH  REQUESTED:          0  ISSUED:          0  USEFUL:          0  USELESS:          0
L2C AVERAGE MISS LATENCY: 25.4313 cycles
LLC TOTAL     ACCESS:     307730  HIT:     289685  MISS:      18045
LLC LOAD      ACCESS:     184012  HIT:     170494  MISS:      13518
LLC RFO       ACCESS:      25744  HIT:      21275  MISS:       4469
LLC PREFETCH  ACCESS:          0  HIT:          0  MISS:          0
LLC WRITEBACK ACCESS:      97974  HIT:      97916  MISS:         58
LLC PREFETCH  REQUESTED:          0  ISSUED:          0  USEFUL:          0  USELESS:          0
LLC AVERAGE MISS LATENCY: 172.33 cycles

DRAM Statistics
 CHANNEL 0
 RQ ROW_BUFFER_HIT:       1467  ROW_BUFFER_MISS:      16514
 DBUS_CONGESTED:       6509
 WQ ROW_BUFFER_HIT:       1451  ROW_BUFFER_MISS:       9257  FULL:          0

 AVG_CONGESTED_CYCLE: 6

CPU 0 Branch Prediction Accuracy: 94.8602% MPKI: 10.0562 Average ROB Occupancy at Mispredict: 88.2328
Branch type MPKI
BRANCH_DIRECT_JUMP: 0.00026
BRANCH_INDIRECT: 0.44454
BRANCH_CONDITIONAL: 9.3923
BRANCH_DIRECT_CALL: 0.00028
BRANCH_INDIRECT_CALL: 0.2182
BRANCH_RETURN: 0.00062

