
VirtualMemory physical capacity: 8589934592 num_ppages: 2097152
VirtualMemory page size: 4096 log2_page_size: 12
VirtualMemory initalizing ppage free list ... done
VirtualMemory shuffling ppage free list ... done


*** ChampSim Multicore Out-of-Order Simulator ***

Warmup Instructions: 50000000
Simulation Instructions: 50000000
Number of CPUs: 1
LLC sets: 2048
LLC ways: 16
Off-chip DRAM Size: 4096 MB Channels: 1 Width: 64-bit Data Rate: 3200 MT/s

CPU 0 runs ipc1_public/server_024.champsimtrace.xz
CPU 0 Bimodal branch predictor
Basic BTB sets: 1024 ways: 8 indirect buffer size: 4096 RAS size: 64
Heartbeat CPU 0 instructions: 10000003 cycles: 2759021 heartbeat IPC: 3.62448 cumulative IPC: 3.62448 (Simulation time: 0 hr 7 min 56 sec) 
Heartbeat CPU 0 instructions: 20000002 cycles: 5497987 heartbeat IPC: 3.65101 cumulative IPC: 3.6377 (Simulation time: 0 hr 16 min 42 sec) 
Heartbeat CPU 0 instructions: 30000001 cycles: 8256029 heartbeat IPC: 3.62576 cumulative IPC: 3.63371 (Simulation time: 0 hr 24 min 56 sec) 
Heartbeat CPU 0 instructions: 40000003 cycles: 11005800 heartbeat IPC: 3.63667 cumulative IPC: 3.63445 (Simulation time: 0 hr 33 min 29 sec) 
Heartbeat CPU 0 instructions: 50000002 cycles: 13732891 heartbeat IPC: 3.66691 cumulative IPC: 3.64089 (Simulation time: 0 hr 43 min 21 sec) 

Warmup complete CPU 0 instructions: 50000002 cycles: 13732891 (Simulation time: 0 hr 43 min 21 sec) 

Heartbeat CPU 0 instructions: 60000000 cycles: 19659224 heartbeat IPC: 1.68738 cumulative IPC: 1.68738 (Simulation time: 0 hr 54 min 16 sec) 
Heartbeat CPU 0 instructions: 70000000 cycles: 25616089 heartbeat IPC: 1.67874 cumulative IPC: 1.68305 (Simulation time: 1 hr 4 min 9 sec) 
*** Reached end of trace: ipc1_public/server_024.champsimtrace.xz
Heartbeat CPU 0 instructions: 80000002 cycles: 31583876 heartbeat IPC: 1.67566 cumulative IPC: 1.68058 (Simulation time: 1 hr 14 min 21 sec) 
Heartbeat CPU 0 instructions: 90000004 cycles: 37640611 heartbeat IPC: 1.65105 cumulative IPC: 1.6731 (Simulation time: 1 hr 23 min 59 sec) 
Heartbeat CPU 0 instructions: 100000004 cycles: 43602414 heartbeat IPC: 1.67734 cumulative IPC: 1.67395 (Simulation time: 1 hr 30 min 45 sec) 
Finished CPU 0 instructions: 50000002 cycles: 29869523 cumulative IPC: 1.67395 (Simulation time: 1 hr 30 min 45 sec) 

ChampSim completed all CPUs

Region of Interest Statistics

CPU 0 cumulative IPC: 1.67395 instructions: 50000002 cycles: 29869523
L1D TOTAL     ACCESS:   14424527  HIT:   13434748  MISS:     989779
L1D LOAD      ACCESS:    8124151  HIT:    7413852  MISS:     710299
L1D RFO       ACCESS:    6300376  HIT:    6020896  MISS:     279480
L1D PREFETCH  ACCESS:          0  HIT:          0  MISS:          0
L1D WRITEBACK ACCESS:          0  HIT:          0  MISS:          0
L1D PREFETCH  REQUESTED:          0  ISSUED:          0  USEFUL:          0  USELESS:          0
L1D AVERAGE MISS LATENCY: 20.704 cycles
L1I TOTAL     ACCESS:   11683138  HIT:    7473819  MISS:    4209319
L1I LOAD      ACCESS:    5320971  HIT:    4211671  MISS:    1109300
L1I RFO       ACCESS:          0  HIT:          0  MISS:          0
L1I PREFETCH  ACCESS:    6362167  HIT:    3262148  MISS:    3100019
L1I WRITEBACK ACCESS:          0  HIT:          0  MISS:          0
L1I PREFETCH  REQUESTED:    7401319  ISSUED:    7401319  USEFUL:    1886062  USELESS:    1213964
L1I AVERAGE MISS LATENCY: 7.9448 cycles
L2C TOTAL     ACCESS:    5666025  HIT:    4713874  MISS:     952151
L2C LOAD      ACCESS:    1610588  HIT:    1224374  MISS:     386214
L2C RFO       ACCESS:     279459  HIT:     165669  MISS:     113790
L2C PREFETCH  ACCESS:    3309026  HIT:    2877374  MISS:     431652
L2C WRITEBACK ACCESS:     466952  HIT:     446457  MISS:      20495
L2C PREFETCH  REQUESTED:          0  ISSUED:          0  USEFUL:     248975  USELESS:     182413
L2C AVERAGE MISS LATENCY: 22.0151 cycles
LLC TOTAL     ACCESS:    1111600  HIT:    1071132  MISS:      40468
LLC LOAD      ACCESS:     386200  HIT:     370825  MISS:      15375
LLC RFO       ACCESS:     113782  HIT:      90692  MISS:      23090
LLC PREFETCH  ACCESS:     431652  HIT:     429726  MISS:       1926
LLC WRITEBACK ACCESS:     179966  HIT:     179889  MISS:         77
LLC PREFETCH  REQUESTED:          0  ISSUED:          0  USEFUL:       1297  USELESS:        493
LLC AVERAGE MISS LATENCY: 264.714 cycles

DRAM Statistics
 CHANNEL 0
 RQ ROW_BUFFER_HIT:      12972  ROW_BUFFER_MISS:      27410
 DBUS_CONGESTED:      33845
 WQ ROW_BUFFER_HIT:       2347  ROW_BUFFER_MISS:      22855  FULL:          0

 AVG_CONGESTED_CYCLE: 6

CPU 0 Branch Prediction Accuracy: 94.5779% MPKI: 9.91836 Average ROB Occupancy at Mispredict: 117.322
Branch type MPKI
BRANCH_DIRECT_JUMP: 0.11014
BRANCH_INDIRECT: 0.4314
BRANCH_CONDITIONAL: 8.73846
BRANCH_DIRECT_CALL: 0.17514
BRANCH_INDIRECT_CALL: 0.44476
BRANCH_RETURN: 0.01846

