
VirtualMemory physical capacity: 8589934592 num_ppages: 2097152
VirtualMemory page size: 4096 log2_page_size: 12
VirtualMemory initalizing ppage free list ... done
VirtualMemory shuffling ppage free list ... done


*** ChampSim Multicore Out-of-Order Simulator ***

Warmup Instructions: 50000000
Simulation Instructions: 50000000
Number of CPUs: 1
LLC sets: 2048
LLC ways: 16
Off-chip DRAM Size: 4096 MB Channels: 1 Width: 64-bit Data Rate: 3200 MT/s

CPU 0 runs ipc1_public/server_014.champsimtrace.xz
CPU 0 Bimodal branch predictor
Basic BTB sets: 1024 ways: 8 indirect buffer size: 4096 RAS size: 64
Heartbeat CPU 0 instructions: 10000002 cycles: 2802806 heartbeat IPC: 3.56785 cumulative IPC: 3.56785 (Simulation time: 0 hr 10 min 46 sec) 
Heartbeat CPU 0 instructions: 20000000 cycles: 5637016 heartbeat IPC: 3.52832 cumulative IPC: 3.54798 (Simulation time: 0 hr 21 min 51 sec) 
Heartbeat CPU 0 instructions: 30000000 cycles: 8466997 heartbeat IPC: 3.53359 cumulative IPC: 3.54317 (Simulation time: 0 hr 33 min 32 sec) 
Heartbeat CPU 0 instructions: 40000001 cycles: 11303118 heartbeat IPC: 3.52594 cumulative IPC: 3.53885 (Simulation time: 0 hr 46 min 53 sec) 
Heartbeat CPU 0 instructions: 50000002 cycles: 14139674 heartbeat IPC: 3.5254 cumulative IPC: 3.53615 (Simulation time: 0 hr 59 min 37 sec) 

Warmup complete CPU 0 instructions: 50000002 cycles: 14139674 (Simulation time: 0 hr 59 min 37 sec) 

Heartbeat CPU 0 instructions: 60000003 cycles: 19893586 heartbeat IPC: 1.73795 cumulative IPC: 1.73795 (Simulation time: 1 hr 13 min 30 sec) 
Heartbeat CPU 0 instructions: 70000000 cycles: 25652525 heartbeat IPC: 1.73643 cumulative IPC: 1.73719 (Simulation time: 1 hr 26 min 29 sec) 
*** Reached end of trace: ipc1_public/server_014.champsimtrace.xz
Heartbeat CPU 0 instructions: 80000001 cycles: 32073456 heartbeat IPC: 1.55741 cumulative IPC: 1.67282 (Simulation time: 1 hr 34 min 27 sec) 
Heartbeat CPU 0 instructions: 90000004 cycles: 39437887 heartbeat IPC: 1.35788 cumulative IPC: 1.58114 (Simulation time: 1 hr 37 min 47 sec) 
Heartbeat CPU 0 instructions: 100000004 cycles: 45330130 heartbeat IPC: 1.69715 cumulative IPC: 1.60305 (Simulation time: 1 hr 40 min 23 sec) 
Finished CPU 0 instructions: 50000002 cycles: 31190456 cumulative IPC: 1.60305 (Simulation time: 1 hr 40 min 23 sec) 

ChampSim completed all CPUs

Region of Interest Statistics

CPU 0 cumulative IPC: 1.60305 instructions: 50000002 cycles: 31190456
L1D TOTAL     ACCESS:   16105423  HIT:   16043951  MISS:      61472
L1D LOAD      ACCESS:    7550581  HIT:    7521334  MISS:      29247
L1D RFO       ACCESS:    8554842  HIT:    8522617  MISS:      32225
L1D PREFETCH  ACCESS:          0  HIT:          0  MISS:          0
L1D WRITEBACK ACCESS:          0  HIT:          0  MISS:          0
L1D PREFETCH  REQUESTED:          0  ISSUED:          0  USEFUL:          0  USELESS:          0
L1D AVERAGE MISS LATENCY: 329.663 cycles
L1I TOTAL     ACCESS:   20888523  HIT:   13661778  MISS:    7226745
L1I LOAD      ACCESS:    6861858  HIT:    5950140  MISS:     911718
L1I RFO       ACCESS:          0  HIT:          0  MISS:          0
L1I PREFETCH  ACCESS:   14026665  HIT:    7711638  MISS:    6315027
L1I WRITEBACK ACCESS:          0  HIT:          0  MISS:          0
L1I PREFETCH  REQUESTED:   15730342  ISSUED:   15730342  USEFUL:    3316146  USELESS:    2998892
L1I AVERAGE MISS LATENCY: 6.74062 cycles
L2C TOTAL     ACCESS:    7326058  HIT:    7255324  MISS:      70734
L2C LOAD      ACCESS:     798183  HIT:     766800  MISS:      31383
L2C RFO       ACCESS:      32225  HIT:       1001  MISS:      31224
L2C PREFETCH  ACCESS:    6457810  HIT:    6449747  MISS:       8063
L2C WRITEBACK ACCESS:      37840  HIT:      37776  MISS:         64
L2C PREFETCH  REQUESTED:          0  ISSUED:          0  USEFUL:       5393  USELESS:       2667
L2C AVERAGE MISS LATENCY: 310.702 cycles
LLC TOTAL     ACCESS:     105683  HIT:      52675  MISS:      53008
LLC LOAD      ACCESS:      31383  HIT:       7166  MISS:      24217
LLC RFO       ACCESS:      31224  HIT:       5743  MISS:      25481
LLC PREFETCH  ACCESS:       8063  HIT:       4777  MISS:       3286
LLC WRITEBACK ACCESS:      35013  HIT:      34989  MISS:         24
LLC PREFETCH  REQUESTED:          0  ISSUED:          0  USEFUL:       1354  USELESS:       1890
LLC AVERAGE MISS LATENCY: 399.931 cycles

DRAM Statistics
 CHANNEL 0
 RQ ROW_BUFFER_HIT:      15145  ROW_BUFFER_MISS:      37767
 DBUS_CONGESTED:      50337
 WQ ROW_BUFFER_HIT:       7637  ROW_BUFFER_MISS:      22669  FULL:          0

 AVG_CONGESTED_CYCLE: 6

CPU 0 Branch Prediction Accuracy: 96.296% MPKI: 6.30482 Average ROB Occupancy at Mispredict: 165.089
Branch type MPKI
BRANCH_DIRECT_JUMP: 0.0077
BRANCH_INDIRECT: 0.00346
BRANCH_CONDITIONAL: 6.0278
BRANCH_DIRECT_CALL: 0.01984
BRANCH_INDIRECT_CALL: 0.01132
BRANCH_RETURN: 0.2347

