
VirtualMemory physical capacity: 8589934592 num_ppages: 2097152
VirtualMemory page size: 4096 log2_page_size: 12
VirtualMemory initalizing ppage free list ... done
VirtualMemory shuffling ppage free list ... done


*** ChampSim Multicore Out-of-Order Simulator ***

Warmup Instructions: 50000000
Simulation Instructions: 50000000
Number of CPUs: 1
LLC sets: 2048
LLC ways: 16
Off-chip DRAM Size: 4096 MB Channels: 1 Width: 64-bit Data Rate: 3200 MT/s

CPU 0 runs ipc1_public/server_030.champsimtrace.xz
CPU 0 Bimodal branch predictor
Basic BTB sets: 1024 ways: 8 indirect buffer size: 4096 RAS size: 64
LHT KB: 31.56
SCC KB: 1.56
Total KB: 33.12
Heartbeat CPU 0 instructions: 10000003 cycles: 2649878 heartbeat IPC: 3.77376 cumulative IPC: 3.77376 (Simulation time: 0 hr 12 min 41 sec) 
Heartbeat CPU 0 instructions: 20000001 cycles: 5296996 heartbeat IPC: 3.77769 cumulative IPC: 3.77573 (Simulation time: 0 hr 25 min 51 sec) 
Heartbeat CPU 0 instructions: 30000000 cycles: 7944457 heartbeat IPC: 3.7772 cumulative IPC: 3.77622 (Simulation time: 0 hr 39 min 9 sec) 
Heartbeat CPU 0 instructions: 40000003 cycles: 10591483 heartbeat IPC: 3.77783 cumulative IPC: 3.77662 (Simulation time: 0 hr 51 min 21 sec) 
Heartbeat CPU 0 instructions: 50000003 cycles: 13240294 heartbeat IPC: 3.77528 cumulative IPC: 3.77635 (Simulation time: 1 hr 3 min 37 sec) 

Warmup complete CPU 0 instructions: 50000003 cycles: 13240294 (Simulation time: 1 hr 3 min 37 sec) 

Heartbeat CPU 0 instructions: 60000000 cycles: 18916000 heartbeat IPC: 1.76189 cumulative IPC: 1.76189 (Simulation time: 1 hr 21 min 35 sec) 
Heartbeat CPU 0 instructions: 70000003 cycles: 24619227 heartbeat IPC: 1.75339 cumulative IPC: 1.75763 (Simulation time: 1 hr 34 min 6 sec) 
Heartbeat CPU 0 instructions: 80000000 cycles: 30277834 heartbeat IPC: 1.76722 cumulative IPC: 1.76082 (Simulation time: 1 hr 41 min 56 sec) 
*** Reached end of trace: ipc1_public/server_030.champsimtrace.xz
Heartbeat CPU 0 instructions: 90000003 cycles: 35970780 heartbeat IPC: 1.75656 cumulative IPC: 1.75975 (Simulation time: 1 hr 46 min 50 sec) 
Heartbeat CPU 0 instructions: 100000003 cycles: 41584276 heartbeat IPC: 1.78142 cumulative IPC: 1.76404 (Simulation time: 1 hr 49 min 46 sec) 
Finished CPU 0 instructions: 50000000 cycles: 28343982 cumulative IPC: 1.76404 (Simulation time: 1 hr 49 min 46 sec) 

ChampSim completed all CPUs

Region of Interest Statistics

CPU 0 cumulative IPC: 1.76404 instructions: 50000000 cycles: 28343982
L1D TOTAL     ACCESS:   14043964  HIT:   12583025  MISS:    1460939
L1D LOAD      ACCESS:    7727500  HIT:    6574252  MISS:    1153248
L1D RFO       ACCESS:    6316464  HIT:    6008773  MISS:     307691
L1D PREFETCH  ACCESS:          0  HIT:          0  MISS:          0
L1D WRITEBACK ACCESS:          0  HIT:          0  MISS:          0
L1D PREFETCH  REQUESTED:          0  ISSUED:          0  USEFUL:          0  USELESS:          0
L1D AVERAGE MISS LATENCY: 10.7855 cycles
L1I TOTAL     ACCESS:   22031140  HIT:   16338080  MISS:    5693060
L1I LOAD      ACCESS:    6066642  HIT:    5474987  MISS:     591655
L1I RFO       ACCESS:          0  HIT:          0  MISS:          0
L1I PREFETCH  ACCESS:   15964498  HIT:   10863093  MISS:    5101405
L1I WRITEBACK ACCESS:          0  HIT:          0  MISS:          0
L1I PREFETCH  REQUESTED:   22845975  ISSUED:   22845975  USEFUL:    3033386  USELESS:    2068016
L1I AVERAGE MISS LATENCY: 7.46134 cycles
L2C TOTAL     ACCESS:    7749390  HIT:    6587394  MISS:    1161996
L2C LOAD      ACCESS:    1419763  HIT:    1090342  MISS:     329421
L2C RFO       ACCESS:     307686  HIT:     213841  MISS:      93845
L2C PREFETCH  ACCESS:    5426464  HIT:    4710175  MISS:     716289
L2C WRITEBACK ACCESS:     595477  HIT:     573036  MISS:      22441
L2C PREFETCH  REQUESTED:          0  ISSUED:          0  USEFUL:     301141  USELESS:     415129
L2C AVERAGE MISS LATENCY: 12.1645 cycles
LLC TOTAL     ACCESS:    1314755  HIT:    1304293  MISS:      10462
LLC LOAD      ACCESS:     329419  HIT:     321383  MISS:       8036
LLC RFO       ACCESS:      93844  HIT:      92053  MISS:       1791
LLC PREFETCH  ACCESS:     716289  HIT:     715665  MISS:        624
LLC WRITEBACK ACCESS:     175203  HIT:     175192  MISS:         11
LLC PREFETCH  REQUESTED:          0  ISSUED:          0  USEFUL:        696  USELESS:        397
LLC AVERAGE MISS LATENCY: 152.902 cycles

DRAM Statistics
 CHANNEL 0
 RQ ROW_BUFFER_HIT:       3376  ROW_BUFFER_MISS:       7075
 DBUS_CONGESTED:       2149
 WQ ROW_BUFFER_HIT:         87  ROW_BUFFER_MISS:       1295  FULL:          0

 AVG_CONGESTED_CYCLE: 6

CPU 0 Branch Prediction Accuracy: 95.378% MPKI: 8.66334 Average ROB Occupancy at Mispredict: 145.247
Branch type MPKI
BRANCH_DIRECT_JUMP: 0.02916
BRANCH_INDIRECT: 0.3573
BRANCH_CONDITIONAL: 7.70228
BRANCH_DIRECT_CALL: 0.043
BRANCH_INDIRECT_CALL: 0.44646
BRANCH_RETURN: 0.08514

