
VirtualMemory physical capacity: 8589934592 num_ppages: 2097152
VirtualMemory page size: 4096 log2_page_size: 12
VirtualMemory initalizing ppage free list ... done
VirtualMemory shuffling ppage free list ... done


*** ChampSim Multicore Out-of-Order Simulator ***

Warmup Instructions: 50000000
Simulation Instructions: 50000000
Number of CPUs: 1
LLC sets: 2048
LLC ways: 16
Off-chip DRAM Size: 4096 MB Channels: 1 Width: 64-bit Data Rate: 3200 MT/s

CPU 0 runs ipc1_public/server_024.champsimtrace.xz
CPU 0 Bimodal branch predictor
Basic BTB sets: 1024 ways: 8 indirect buffer size: 4096 RAS size: 64
LHT KB: 31.56
SCC KB: 1.56
Total KB: 33.12
Heartbeat CPU 0 instructions: 10000003 cycles: 2626481 heartbeat IPC: 3.80738 cumulative IPC: 3.80738 (Simulation time: 0 hr 10 min 23 sec) 
Heartbeat CPU 0 instructions: 20000003 cycles: 5244624 heartbeat IPC: 3.8195 cumulative IPC: 3.81343 (Simulation time: 0 hr 23 min 19 sec) 
Heartbeat CPU 0 instructions: 30000001 cycles: 7877744 heartbeat IPC: 3.79778 cumulative IPC: 3.8082 (Simulation time: 0 hr 37 min 19 sec) 
Heartbeat CPU 0 instructions: 40000003 cycles: 10504255 heartbeat IPC: 3.80733 cumulative IPC: 3.80798 (Simulation time: 0 hr 48 min 30 sec) 
Heartbeat CPU 0 instructions: 50000002 cycles: 13117866 heartbeat IPC: 3.82612 cumulative IPC: 3.8116 (Simulation time: 0 hr 58 min 24 sec) 

Warmup complete CPU 0 instructions: 50000002 cycles: 13117866 (Simulation time: 0 hr 58 min 24 sec) 

Heartbeat CPU 0 instructions: 60000000 cycles: 18888540 heartbeat IPC: 1.7329 cumulative IPC: 1.7329 (Simulation time: 1 hr 14 min 37 sec) 
Heartbeat CPU 0 instructions: 70000000 cycles: 24707269 heartbeat IPC: 1.71859 cumulative IPC: 1.72571 (Simulation time: 1 hr 31 min 19 sec) 
*** Reached end of trace: ipc1_public/server_024.champsimtrace.xz
Heartbeat CPU 0 instructions: 80000002 cycles: 30522399 heartbeat IPC: 1.71965 cumulative IPC: 1.72369 (Simulation time: 1 hr 45 min 41 sec) 
Heartbeat CPU 0 instructions: 90000004 cycles: 36444565 heartbeat IPC: 1.68857 cumulative IPC: 1.71477 (Simulation time: 2 hr 0 min 4 sec) 
Heartbeat CPU 0 instructions: 100000004 cycles: 42284419 heartbeat IPC: 1.71237 cumulative IPC: 1.71429 (Simulation time: 2 hr 10 min 52 sec) 
Finished CPU 0 instructions: 50000002 cycles: 29166553 cumulative IPC: 1.71429 (Simulation time: 2 hr 10 min 52 sec) 

ChampSim completed all CPUs

Region of Interest Statistics

CPU 0 cumulative IPC: 1.71429 instructions: 50000002 cycles: 29166553
L1D TOTAL     ACCESS:   14375025  HIT:   13385214  MISS:     989811
L1D LOAD      ACCESS:    8081379  HIT:    7371104  MISS:     710275
L1D RFO       ACCESS:    6293646  HIT:    6014110  MISS:     279536
L1D PREFETCH  ACCESS:          0  HIT:          0  MISS:          0
L1D WRITEBACK ACCESS:          0  HIT:          0  MISS:          0
L1D PREFETCH  REQUESTED:          0  ISSUED:          0  USEFUL:          0  USELESS:          0
L1D AVERAGE MISS LATENCY: 20.886 cycles
L1I TOTAL     ACCESS:   19789862  HIT:   14702211  MISS:    5087651
L1I LOAD      ACCESS:    5391172  HIT:    4875690  MISS:     515482
L1I RFO       ACCESS:          0  HIT:          0  MISS:          0
L1I PREFETCH  ACCESS:   14398690  HIT:    9826521  MISS:    4572169
L1I WRITEBACK ACCESS:          0  HIT:          0  MISS:          0
L1I PREFETCH  REQUESTED:   20930440  ISSUED:   20930440  USEFUL:    2849307  USELESS:    1722847
L1I AVERAGE MISS LATENCY: 7.59873 cycles
L2C TOTAL     ACCESS:    6544392  HIT:    5439339  MISS:    1105053
L2C LOAD      ACCESS:     937513  HIT:     655172  MISS:     282341
L2C RFO       ACCESS:     279532  HIT:     166958  MISS:     112574
L2C PREFETCH  ACCESS:    4860413  HIT:    4180934  MISS:     679479
L2C WRITEBACK ACCESS:     466934  HIT:     436275  MISS:      30659
L2C PREFETCH  REQUESTED:          0  ISSUED:          0  USEFUL:     335221  USELESS:     343675
L2C AVERAGE MISS LATENCY: 20.475 cycles
LLC TOTAL     ACCESS:    1259572  HIT:    1219706  MISS:      39866
LLC LOAD      ACCESS:     282339  HIT:     268033  MISS:      14306
LLC RFO       ACCESS:     112574  HIT:      89564  MISS:      23010
LLC PREFETCH  ACCESS:     679479  HIT:     676987  MISS:       2492
LLC WRITEBACK ACCESS:     185180  HIT:     185122  MISS:         58
LLC PREFETCH  REQUESTED:          0  ISSUED:          0  USEFUL:       1432  USELESS:       1006
LLC AVERAGE MISS LATENCY: 271.068 cycles

DRAM Statistics
 CHANNEL 0
 RQ ROW_BUFFER_HIT:      12748  ROW_BUFFER_MISS:      27054
 DBUS_CONGESTED:      34302
 WQ ROW_BUFFER_HIT:       2224  ROW_BUFFER_MISS:      22665  FULL:          0

 AVG_CONGESTED_CYCLE: 6

CPU 0 Branch Prediction Accuracy: 94.5779% MPKI: 9.91836 Average ROB Occupancy at Mispredict: 127.001
Branch type MPKI
BRANCH_DIRECT_JUMP: 0.11014
BRANCH_INDIRECT: 0.4314
BRANCH_CONDITIONAL: 8.73846
BRANCH_DIRECT_CALL: 0.17514
BRANCH_INDIRECT_CALL: 0.44476
BRANCH_RETURN: 0.01846

