
VirtualMemory physical capacity: 8589934592 num_ppages: 2097152
VirtualMemory page size: 4096 log2_page_size: 12
VirtualMemory initalizing ppage free list ... done
VirtualMemory shuffling ppage free list ... done


*** ChampSim Multicore Out-of-Order Simulator ***

Warmup Instructions: 50000000
Simulation Instructions: 50000000
Number of CPUs: 1
LLC sets: 2048
LLC ways: 16
Off-chip DRAM Size: 4096 MB Channels: 1 Width: 64-bit Data Rate: 3200 MT/s

CPU 0 runs ipc1_public/server_017.champsimtrace.xz
CPU 0 Bimodal branch predictor
Basic BTB sets: 1024 ways: 8 indirect buffer size: 4096 RAS size: 64
CPU 0 L1I next line prefetcher
Heartbeat CPU 0 instructions: 10000001 cycles: 2827038 heartbeat IPC: 3.53727 cumulative IPC: 3.53727 (Simulation time: 0 hr 18 min 9 sec) 
Heartbeat CPU 0 instructions: 20000001 cycles: 5645927 heartbeat IPC: 3.5475 cumulative IPC: 3.54238 (Simulation time: 0 hr 35 min 38 sec) 
Heartbeat CPU 0 instructions: 30000000 cycles: 8464472 heartbeat IPC: 3.54793 cumulative IPC: 3.54423 (Simulation time: 0 hr 54 min 59 sec) 
Heartbeat CPU 0 instructions: 40000003 cycles: 11284918 heartbeat IPC: 3.54554 cumulative IPC: 3.54455 (Simulation time: 1 hr 10 min 5 sec) 
Heartbeat CPU 0 instructions: 50000002 cycles: 14101934 heartbeat IPC: 3.54986 cumulative IPC: 3.54561 (Simulation time: 1 hr 22 min 43 sec) 

Warmup complete CPU 0 instructions: 50000002 cycles: 14101934 (Simulation time: 1 hr 22 min 43 sec) 

Heartbeat CPU 0 instructions: 60000001 cycles: 36686050 heartbeat IPC: 0.442789 cumulative IPC: 0.442789 (Simulation time: 2 hr 1 min 41 sec) 
Heartbeat CPU 0 instructions: 70000001 cycles: 59599554 heartbeat IPC: 0.436424 cumulative IPC: 0.439583 (Simulation time: 2 hr 17 min 46 sec) 
Heartbeat CPU 0 instructions: 80000000 cycles: 81977497 heartbeat IPC: 0.446869 cumulative IPC: 0.441985 (Simulation time: 2 hr 25 min 10 sec) 
Heartbeat CPU 0 instructions: 90000004 cycles: 107290543 heartbeat IPC: 0.395053 cumulative IPC: 0.429237 (Simulation time: 2 hr 31 min 28 sec) 
Heartbeat CPU 0 instructions: 100000003 cycles: 131138218 heartbeat IPC: 0.419328 cumulative IPC: 0.427218 (Simulation time: 2 hr 36 min 2 sec) 
Finished CPU 0 instructions: 50000001 cycles: 117036284 cumulative IPC: 0.427218 (Simulation time: 2 hr 36 min 2 sec) 

ChampSim completed all CPUs

Region of Interest Statistics

CPU 0 cumulative IPC: 0.427218 instructions: 50000001 cycles: 117036284
L1D TOTAL     ACCESS:   13622771  HIT:   11884692  MISS:    1738079
L1D LOAD      ACCESS:    7391960  HIT:    6524221  MISS:     867739
L1D RFO       ACCESS:    6230811  HIT:    5360471  MISS:     870340
L1D PREFETCH  ACCESS:          0  HIT:          0  MISS:          0
L1D WRITEBACK ACCESS:          0  HIT:          0  MISS:          0
L1D PREFETCH  REQUESTED:          0  ISSUED:          0  USEFUL:          0  USELESS:          0
L1D AVERAGE MISS LATENCY: 228.531 cycles
L1I TOTAL     ACCESS:    9546463  HIT:    6702002  MISS:    2844461
L1I LOAD      ACCESS:    4964445  HIT:    4907008  MISS:      57437
L1I RFO       ACCESS:          0  HIT:          0  MISS:          0
L1I PREFETCH  ACCESS:    4582018  HIT:    1794994  MISS:    2787024
L1I WRITEBACK ACCESS:          0  HIT:          0  MISS:          0
L1I PREFETCH  REQUESTED:    4713019  ISSUED:    4712953  USEFUL:    2247903  USELESS:     539122
L1I AVERAGE MISS LATENCY: 8.12142 cycles
L2C TOTAL     ACCESS:    5692998  HIT:    4049772  MISS:    1643226
L2C LOAD      ACCESS:     905314  HIT:     224814  MISS:     680500
L2C RFO       ACCESS:     870340  HIT:      24691  MISS:     845649
L2C PREFETCH  ACCESS:    2806886  HIT:    2693302  MISS:     113584
L2C WRITEBACK ACCESS:    1110458  HIT:    1106965  MISS:       3493
L2C PREFETCH  REQUESTED:          0  ISSUED:          0  USEFUL:      86820  USELESS:      26818
L2C AVERAGE MISS LATENCY: 238.8 cycles
LLC TOTAL     ACCESS:    2693059  HIT:    1477237  MISS:    1215822
LLC LOAD      ACCESS:     680500  HIT:     190944  MISS:     489556
LLC RFO       ACCESS:     845649  HIT:     137528  MISS:     708121
LLC PREFETCH  ACCESS:     113584  HIT:      97285  MISS:      16299
LLC WRITEBACK ACCESS:    1053326  HIT:    1051480  MISS:       1846
LLC PREFETCH  REQUESTED:          0  ISSUED:          0  USEFUL:       9499  USELESS:       6563
LLC AVERAGE MISS LATENCY: 307.909 cycles
I-Shadow cache 408 bytes
Touched + WorthPF tables 6144 bytes 
MMA filter 174 bytes 
FNL filter 272 bytes 
TOTAL PREFETCHER STORAGE SIZE: 25174 bytes
CPU 0 L1I next line prefetcher final stats

DRAM Statistics
 CHANNEL 0
 RQ ROW_BUFFER_HIT:     298083  ROW_BUFFER_MISS:     915532
 DBUS_CONGESTED:    1119421
 WQ ROW_BUFFER_HIT:     352389  ROW_BUFFER_MISS:     492301  FULL:          0

 AVG_CONGESTED_CYCLE: 6

CPU 0 Branch Prediction Accuracy: 95.2682% MPKI: 7.96046 Average ROB Occupancy at Mispredict: 228.366
Branch type MPKI
BRANCH_DIRECT_JUMP: 0.00224
BRANCH_INDIRECT: 0.00382
BRANCH_CONDITIONAL: 7.93874
BRANCH_DIRECT_CALL: 0.00614
BRANCH_INDIRECT_CALL: 0.00952
BRANCH_RETURN: 0

