
VirtualMemory physical capacity: 8589934592 num_ppages: 2097152
VirtualMemory page size: 4096 log2_page_size: 12
VirtualMemory initalizing ppage free list ... done
VirtualMemory shuffling ppage free list ... done


*** ChampSim Multicore Out-of-Order Simulator ***

Warmup Instructions: 50000000
Simulation Instructions: 50000000
Number of CPUs: 1
LLC sets: 2048
LLC ways: 16
Off-chip DRAM Size: 4096 MB Channels: 1 Width: 64-bit Data Rate: 3200 MT/s

CPU 0 runs ipc1_public/server_015.champsimtrace.xz
CPU 0 Bimodal branch predictor
Basic BTB sets: 1024 ways: 8 indirect buffer size: 4096 RAS size: 64
Heartbeat CPU 0 instructions: 10000000 cycles: 2825772 heartbeat IPC: 3.53886 cumulative IPC: 3.53886 (Simulation time: 0 hr 9 min 7 sec) 
Heartbeat CPU 0 instructions: 20000002 cycles: 5722767 heartbeat IPC: 3.45185 cumulative IPC: 3.49481 (Simulation time: 0 hr 19 min 25 sec) 
Heartbeat CPU 0 instructions: 30000003 cycles: 8623350 heartbeat IPC: 3.44758 cumulative IPC: 3.47893 (Simulation time: 0 hr 25 min 24 sec) 
Heartbeat CPU 0 instructions: 40000003 cycles: 11534563 heartbeat IPC: 3.43499 cumulative IPC: 3.46784 (Simulation time: 0 hr 31 min 1 sec) 
Heartbeat CPU 0 instructions: 50000002 cycles: 14445779 heartbeat IPC: 3.43499 cumulative IPC: 3.46122 (Simulation time: 0 hr 35 min 53 sec) 

Warmup complete CPU 0 instructions: 50000002 cycles: 14445779 (Simulation time: 0 hr 35 min 53 sec) 

Heartbeat CPU 0 instructions: 60000003 cycles: 20233362 heartbeat IPC: 1.72784 cumulative IPC: 1.72784 (Simulation time: 0 hr 43 min 32 sec) 
Heartbeat CPU 0 instructions: 70000001 cycles: 26043847 heartbeat IPC: 1.72103 cumulative IPC: 1.72443 (Simulation time: 0 hr 52 min 5 sec) 
Heartbeat CPU 0 instructions: 80000000 cycles: 31854153 heartbeat IPC: 1.72108 cumulative IPC: 1.72331 (Simulation time: 1 hr 0 min 51 sec) 
Heartbeat CPU 0 instructions: 90000000 cycles: 37665504 heartbeat IPC: 1.72077 cumulative IPC: 1.72267 (Simulation time: 1 hr 7 min 12 sec) 
Heartbeat CPU 0 instructions: 100000000 cycles: 43475860 heartbeat IPC: 1.72106 cumulative IPC: 1.72235 (Simulation time: 1 hr 12 min 2 sec) 
Finished CPU 0 instructions: 50000003 cycles: 29030082 cumulative IPC: 1.72235 (Simulation time: 1 hr 12 min 2 sec) 

ChampSim completed all CPUs

Region of Interest Statistics

CPU 0 cumulative IPC: 1.72235 instructions: 50000003 cycles: 29030082
L1D TOTAL     ACCESS:   16331587  HIT:   16331183  MISS:        404
L1D LOAD      ACCESS:    7628834  HIT:    7628488  MISS:        346
L1D RFO       ACCESS:    8702753  HIT:    8702695  MISS:         58
L1D PREFETCH  ACCESS:          0  HIT:          0  MISS:          0
L1D WRITEBACK ACCESS:          0  HIT:          0  MISS:          0
L1D PREFETCH  REQUESTED:          0  ISSUED:          0  USEFUL:          0  USELESS:          0
L1D AVERAGE MISS LATENCY: 36.2748 cycles
L1I TOTAL     ACCESS:    6856947  HIT:    5248813  MISS:    1608134
L1I LOAD      ACCESS:    6856947  HIT:    5248813  MISS:    1608134
L1I RFO       ACCESS:          0  HIT:          0  MISS:          0
L1I PREFETCH  ACCESS:          0  HIT:          0  MISS:          0
L1I WRITEBACK ACCESS:          0  HIT:          0  MISS:          0
L1I PREFETCH  REQUESTED:          0  ISSUED:          0  USEFUL:          0  USELESS:          0
L1I AVERAGE MISS LATENCY: 6.00038 cycles
L2C TOTAL     ACCESS:    1608722  HIT:    1608606  MISS:        116
L2C LOAD      ACCESS:    1608480  HIT:    1608370  MISS:        110
L2C RFO       ACCESS:         58  HIT:         55  MISS:          3
L2C PREFETCH  ACCESS:          0  HIT:          0  MISS:          0
L2C WRITEBACK ACCESS:        184  HIT:        181  MISS:          3
L2C PREFETCH  REQUESTED:          0  ISSUED:          0  USEFUL:          0  USELESS:          0
L2C AVERAGE MISS LATENCY: 107.336 cycles
LLC TOTAL     ACCESS:        157  HIT:         92  MISS:         65
LLC LOAD      ACCESS:        110  HIT:         48  MISS:         62
LLC RFO       ACCESS:          3  HIT:          0  MISS:          3
LLC PREFETCH  ACCESS:          0  HIT:          0  MISS:          0
LLC WRITEBACK ACCESS:         44  HIT:         44  MISS:          0
LLC PREFETCH  REQUESTED:          0  ISSUED:          0  USEFUL:          0  USELESS:          0
LLC AVERAGE MISS LATENCY: 172.431 cycles

DRAM Statistics
 CHANNEL 0
 RQ ROW_BUFFER_HIT:          7  ROW_BUFFER_MISS:         58
 DBUS_CONGESTED:         20
 WQ ROW_BUFFER_HIT:          1  ROW_BUFFER_MISS:         38  FULL:          0

 AVG_CONGESTED_CYCLE: 6

CPU 0 Branch Prediction Accuracy: 96.6172% MPKI: 5.7012 Average ROB Occupancy at Mispredict: 167.68
Branch type MPKI
BRANCH_DIRECT_JUMP: 2e-05
BRANCH_INDIRECT: 0
BRANCH_CONDITIONAL: 5.55508
BRANCH_DIRECT_CALL: 8e-05
BRANCH_INDIRECT_CALL: 0.00028
BRANCH_RETURN: 0.14574

