
VirtualMemory physical capacity: 8589934592 num_ppages: 2097152
VirtualMemory page size: 4096 log2_page_size: 12
VirtualMemory initalizing ppage free list ... done
VirtualMemory shuffling ppage free list ... done


*** ChampSim Multicore Out-of-Order Simulator ***

Warmup Instructions: 50000000
Simulation Instructions: 50000000
Number of CPUs: 1
LLC sets: 2048
LLC ways: 16
Off-chip DRAM Size: 4096 MB Channels: 1 Width: 64-bit Data Rate: 3200 MT/s

CPU 0 runs ipc1_public/server_034.champsimtrace.xz
CPU 0 Bimodal branch predictor
Basic BTB sets: 1024 ways: 8 indirect buffer size: 4096 RAS size: 64
Heartbeat CPU 0 instructions: 10000002 cycles: 2922159 heartbeat IPC: 3.42213 cumulative IPC: 3.42213 (Simulation time: 0 hr 16 min 49 sec) 
Heartbeat CPU 0 instructions: 20000003 cycles: 5831831 heartbeat IPC: 3.43681 cumulative IPC: 3.42946 (Simulation time: 0 hr 34 min 46 sec) 
Heartbeat CPU 0 instructions: 30000002 cycles: 8758198 heartbeat IPC: 3.41721 cumulative IPC: 3.42536 (Simulation time: 0 hr 51 min 38 sec) 
Heartbeat CPU 0 instructions: 40000004 cycles: 11683152 heartbeat IPC: 3.41886 cumulative IPC: 3.42373 (Simulation time: 1 hr 9 min 33 sec) 
Heartbeat CPU 0 instructions: 50000002 cycles: 14604077 heartbeat IPC: 3.42357 cumulative IPC: 3.4237 (Simulation time: 1 hr 28 min 1 sec) 

Warmup complete CPU 0 instructions: 50000002 cycles: 14604077 (Simulation time: 1 hr 28 min 1 sec) 

Heartbeat CPU 0 instructions: 60000002 cycles: 20256847 heartbeat IPC: 1.76904 cumulative IPC: 1.76904 (Simulation time: 1 hr 45 min 38 sec) 
Heartbeat CPU 0 instructions: 70000004 cycles: 26081836 heartbeat IPC: 1.71674 cumulative IPC: 1.7425 (Simulation time: 2 hr 3 min 47 sec) 
Heartbeat CPU 0 instructions: 80000002 cycles: 31751447 heartbeat IPC: 1.76379 cumulative IPC: 1.74954 (Simulation time: 2 hr 19 min 9 sec) 
Heartbeat CPU 0 instructions: 90000002 cycles: 37422591 heartbeat IPC: 1.76331 cumulative IPC: 1.75296 (Simulation time: 2 hr 36 min 6 sec) 
Heartbeat CPU 0 instructions: 100000000 cycles: 43108426 heartbeat IPC: 1.75876 cumulative IPC: 1.75412 (Simulation time: 2 hr 48 min 12 sec) 
Finished CPU 0 instructions: 50000002 cycles: 28504350 cumulative IPC: 1.75412 (Simulation time: 2 hr 48 min 12 sec) 

ChampSim completed all CPUs

Region of Interest Statistics

CPU 0 cumulative IPC: 1.75412 instructions: 50000002 cycles: 28504350
L1D TOTAL     ACCESS:   13647841  HIT:   13042489  MISS:     605352
L1D LOAD      ACCESS:    7265124  HIT:    6746057  MISS:     519067
L1D RFO       ACCESS:    6382717  HIT:    6296432  MISS:      86285
L1D PREFETCH  ACCESS:          0  HIT:          0  MISS:          0
L1D WRITEBACK ACCESS:          0  HIT:          0  MISS:          0
L1D PREFETCH  REQUESTED:          0  ISSUED:          0  USEFUL:          0  USELESS:          0
L1D AVERAGE MISS LATENCY: 8.69764 cycles
L1I TOTAL     ACCESS:    6062433  HIT:    2712611  MISS:    3349822
L1I LOAD      ACCESS:    6062433  HIT:    2712611  MISS:    3349822
L1I RFO       ACCESS:          0  HIT:          0  MISS:          0
L1I PREFETCH  ACCESS:          0  HIT:          0  MISS:          0
L1I WRITEBACK ACCESS:          0  HIT:          0  MISS:          0
L1I PREFETCH  REQUESTED:          0  ISSUED:          0  USEFUL:          0  USELESS:          0
L1I AVERAGE MISS LATENCY: 6.0758 cycles
L2C TOTAL     ACCESS:    4184240  HIT:    4130668  MISS:      53572
L2C LOAD      ACCESS:    3868887  HIT:    3825283  MISS:      43604
L2C RFO       ACCESS:      86274  HIT:      77633  MISS:       8641
L2C PREFETCH  ACCESS:          0  HIT:          0  MISS:          0
L2C WRITEBACK ACCESS:     229079  HIT:     227752  MISS:       1327
L2C PREFETCH  REQUESTED:          0  ISSUED:          0  USEFUL:          0  USELESS:          0
L2C AVERAGE MISS LATENCY: 21.6423 cycles
LLC TOTAL     ACCESS:      78752  HIT:      73873  MISS:       4879
LLC LOAD      ACCESS:      43604  HIT:      40557  MISS:       3047
LLC RFO       ACCESS:       8641  HIT:       6816  MISS:       1825
LLC PREFETCH  ACCESS:          0  HIT:          0  MISS:          0
LLC WRITEBACK ACCESS:      26507  HIT:      26500  MISS:          7
LLC PREFETCH  REQUESTED:          0  ISSUED:          0  USEFUL:          0  USELESS:          0
LLC AVERAGE MISS LATENCY: 119.844 cycles

DRAM Statistics
 CHANNEL 0
 RQ ROW_BUFFER_HIT:       2558  ROW_BUFFER_MISS:       2314
 DBUS_CONGESTED:       1263
 WQ ROW_BUFFER_HIT:         53  ROW_BUFFER_MISS:        525  FULL:          0

 AVG_CONGESTED_CYCLE: 5

CPU 0 Branch Prediction Accuracy: 94.8381% MPKI: 10.0955 Average ROB Occupancy at Mispredict: 80.507
Branch type MPKI
BRANCH_DIRECT_JUMP: 0.00012
BRANCH_INDIRECT: 0.44418
BRANCH_CONDITIONAL: 9.41754
BRANCH_DIRECT_CALL: 0.0001
BRANCH_INDIRECT_CALL: 0.233
BRANCH_RETURN: 0.00058

