
VirtualMemory physical capacity: 8589934592 num_ppages: 2097152
VirtualMemory page size: 4096 log2_page_size: 12
VirtualMemory initalizing ppage free list ... done
VirtualMemory shuffling ppage free list ... done


*** ChampSim Multicore Out-of-Order Simulator ***

Warmup Instructions: 50000000
Simulation Instructions: 50000000
Number of CPUs: 1
LLC sets: 2048
LLC ways: 16
Off-chip DRAM Size: 4096 MB Channels: 1 Width: 64-bit Data Rate: 3200 MT/s

CPU 0 runs ipc1_public/server_016.champsimtrace.xz
CPU 0 Bimodal branch predictor
Basic BTB sets: 1024 ways: 8 indirect buffer size: 4096 RAS size: 64
Heartbeat CPU 0 instructions: 10000003 cycles: 2878462 heartbeat IPC: 3.47408 cumulative IPC: 3.47408 (Simulation time: 0 hr 24 min 41 sec) 
Heartbeat CPU 0 instructions: 20000003 cycles: 5741537 heartbeat IPC: 3.49275 cumulative IPC: 3.48339 (Simulation time: 0 hr 47 min 6 sec) 
Heartbeat CPU 0 instructions: 30000001 cycles: 8604298 heartbeat IPC: 3.49313 cumulative IPC: 3.48663 (Simulation time: 1 hr 9 min 2 sec) 
Heartbeat CPU 0 instructions: 40000000 cycles: 11190859 heartbeat IPC: 3.86614 cumulative IPC: 3.57435 (Simulation time: 1 hr 23 min 7 sec) 
Heartbeat CPU 0 instructions: 50000000 cycles: 13690859 heartbeat IPC: 4 cumulative IPC: 3.65207 (Simulation time: 1 hr 32 min 57 sec) 

Warmup complete CPU 0 instructions: 50000004 cycles: 13690860 (Simulation time: 1 hr 32 min 57 sec) 

Heartbeat CPU 0 instructions: 60000001 cycles: 17009571 heartbeat IPC: 3.01322 cumulative IPC: 3.01322 (Simulation time: 1 hr 40 min 51 sec) 
Heartbeat CPU 0 instructions: 70000000 cycles: 23150383 heartbeat IPC: 1.62845 cumulative IPC: 2.11427 (Simulation time: 2 hr 0 min 11 sec) 
Heartbeat CPU 0 instructions: 80000000 cycles: 29401392 heartbeat IPC: 1.59974 cumulative IPC: 1.90955 (Simulation time: 2 hr 20 min 16 sec) 
Heartbeat CPU 0 instructions: 90000001 cycles: 35463709 heartbeat IPC: 1.64953 cumulative IPC: 1.83715 (Simulation time: 2 hr 39 min 52 sec) 
Heartbeat CPU 0 instructions: 100000002 cycles: 41646383 heartbeat IPC: 1.61742 cumulative IPC: 1.78856 (Simulation time: 2 hr 56 min 56 sec) 
Finished CPU 0 instructions: 50000000 cycles: 27955526 cumulative IPC: 1.78856 (Simulation time: 2 hr 56 min 56 sec) 

ChampSim completed all CPUs

Region of Interest Statistics

CPU 0 cumulative IPC: 1.78856 instructions: 50000000 cycles: 27955526
L1D TOTAL     ACCESS:   12871031  HIT:   12042662  MISS:     828369
L1D LOAD      ACCESS:    7553737  HIT:    6952295  MISS:     601442
L1D RFO       ACCESS:    5317294  HIT:    5090367  MISS:     226927
L1D PREFETCH  ACCESS:          0  HIT:          0  MISS:          0
L1D WRITEBACK ACCESS:          0  HIT:          0  MISS:          0
L1D PREFETCH  REQUESTED:          0  ISSUED:          0  USEFUL:          0  USELESS:          0
L1D AVERAGE MISS LATENCY: 16.417 cycles
L1I TOTAL     ACCESS:    8876545  HIT:    3002979  MISS:    5873566
L1I LOAD      ACCESS:    4248122  HIT:    2014539  MISS:    2233583
L1I RFO       ACCESS:          0  HIT:          0  MISS:          0
L1I PREFETCH  ACCESS:    4628423  HIT:     988440  MISS:    3639983
L1I WRITEBACK ACCESS:          0  HIT:          0  MISS:          0
L1I PREFETCH  REQUESTED:    5478866  ISSUED:    5478866  USEFUL:    1161553  USELESS:    2478428
L1I AVERAGE MISS LATENCY: 7.44137 cycles
L2C TOTAL     ACCESS:    7088192  HIT:    6427755  MISS:     660437
L2C LOAD      ACCESS:    2658730  HIT:    2366102  MISS:     292628
L2C RFO       ACCESS:     226920  HIT:     146184  MISS:      80736
L2C PREFETCH  ACCESS:    3816278  HIT:    3542446  MISS:     273832
L2C WRITEBACK ACCESS:     386264  HIT:     373023  MISS:      13241
L2C PREFETCH  REQUESTED:          0  ISSUED:          0  USEFUL:     194017  USELESS:      79473
L2C AVERAGE MISS LATENCY: 19.4795 cycles
LLC TOTAL     ACCESS:     774199  HIT:     747263  MISS:      26936
LLC LOAD      ACCESS:     292628  HIT:     281725  MISS:      10903
LLC RFO       ACCESS:      80736  HIT:      66481  MISS:      14255
LLC PREFETCH  ACCESS:     273833  HIT:     272126  MISS:       1707
LLC WRITEBACK ACCESS:     127002  HIT:     126931  MISS:         71
LLC PREFETCH  REQUESTED:          0  ISSUED:          0  USEFUL:       1047  USELESS:        520
LLC AVERAGE MISS LATENCY: 213.294 cycles

DRAM Statistics
 CHANNEL 0
 RQ ROW_BUFFER_HIT:       8953  ROW_BUFFER_MISS:      17903
 DBUS_CONGESTED:      19182
 WQ ROW_BUFFER_HIT:       1102  ROW_BUFFER_MISS:      12785  FULL:          0

 AVG_CONGESTED_CYCLE: 6

CPU 0 Branch Prediction Accuracy: 95.485% MPKI: 8.19576 Average ROB Occupancy at Mispredict: 104.649
Branch type MPKI
BRANCH_DIRECT_JUMP: 0.07992
BRANCH_INDIRECT: 0.34456
BRANCH_CONDITIONAL: 7.25654
BRANCH_DIRECT_CALL: 0.12644
BRANCH_INDIRECT_CALL: 0.36648
BRANCH_RETURN: 0.02182

