
VirtualMemory physical capacity: 8589934592 num_ppages: 2097152
VirtualMemory page size: 4096 log2_page_size: 12
VirtualMemory initalizing ppage free list ... done
VirtualMemory shuffling ppage free list ... done


*** ChampSim Multicore Out-of-Order Simulator ***

Warmup Instructions: 50000000
Simulation Instructions: 50000000
Number of CPUs: 1
LLC sets: 2048
LLC ways: 16
Off-chip DRAM Size: 4096 MB Channels: 1 Width: 64-bit Data Rate: 3200 MT/s

CPU 0 runs ipc1_public/spec_gobmk_002.champsimtrace.xz
CPU 0 Bimodal branch predictor
Basic BTB sets: 1024 ways: 8 indirect buffer size: 4096 RAS size: 64
Heartbeat CPU 0 instructions: 10000000 cycles: 2510976 heartbeat IPC: 3.98252 cumulative IPC: 3.98252 (Simulation time: 0 hr 10 min 34 sec) 
Heartbeat CPU 0 instructions: 20000002 cycles: 5021983 heartbeat IPC: 3.98247 cumulative IPC: 3.98249 (Simulation time: 0 hr 21 min 22 sec) 
Heartbeat CPU 0 instructions: 30000002 cycles: 7537047 heartbeat IPC: 3.97604 cumulative IPC: 3.98034 (Simulation time: 0 hr 34 min 6 sec) 
Heartbeat CPU 0 instructions: 40000003 cycles: 10055759 heartbeat IPC: 3.97028 cumulative IPC: 3.97782 (Simulation time: 0 hr 45 min 33 sec) 
Heartbeat CPU 0 instructions: 50000003 cycles: 12574240 heartbeat IPC: 3.97065 cumulative IPC: 3.97638 (Simulation time: 0 hr 56 min 35 sec) 

Warmup complete CPU 0 instructions: 50000003 cycles: 12574240 (Simulation time: 0 hr 56 min 35 sec) 

Heartbeat CPU 0 instructions: 60000003 cycles: 20258228 heartbeat IPC: 1.30141 cumulative IPC: 1.30141 (Simulation time: 1 hr 6 min 55 sec) 
Heartbeat CPU 0 instructions: 70000000 cycles: 27933444 heartbeat IPC: 1.30289 cumulative IPC: 1.30215 (Simulation time: 1 hr 16 min 17 sec) 
Heartbeat CPU 0 instructions: 80000003 cycles: 35529620 heartbeat IPC: 1.31645 cumulative IPC: 1.30688 (Simulation time: 1 hr 26 min 19 sec) 
Heartbeat CPU 0 instructions: 90000002 cycles: 42763042 heartbeat IPC: 1.38247 cumulative IPC: 1.32499 (Simulation time: 1 hr 32 min 30 sec) 
Heartbeat CPU 0 instructions: 100000004 cycles: 50293599 heartbeat IPC: 1.32792 cumulative IPC: 1.32558 (Simulation time: 1 hr 36 min 49 sec) 
Finished CPU 0 instructions: 50000001 cycles: 37719359 cumulative IPC: 1.32558 (Simulation time: 1 hr 36 min 49 sec) 

ChampSim completed all CPUs

Region of Interest Statistics

CPU 0 cumulative IPC: 1.32558 instructions: 50000001 cycles: 37719359
L1D TOTAL     ACCESS:   11663331  HIT:   11590191  MISS:      73140
L1D LOAD      ACCESS:    7194172  HIT:    7157276  MISS:      36896
L1D RFO       ACCESS:    4469159  HIT:    4432915  MISS:      36244
L1D PREFETCH  ACCESS:          0  HIT:          0  MISS:          0
L1D WRITEBACK ACCESS:          0  HIT:          0  MISS:          0
L1D PREFETCH  REQUESTED:          0  ISSUED:          0  USEFUL:          0  USELESS:          0
L1D AVERAGE MISS LATENCY: 53.6335 cycles
L1I TOTAL     ACCESS:   11754773  HIT:    9774708  MISS:    1980065
L1I LOAD      ACCESS:    4714383  HIT:    4580481  MISS:     133902
L1I RFO       ACCESS:          0  HIT:          0  MISS:          0
L1I PREFETCH  ACCESS:    7040390  HIT:    5194227  MISS:    1846163
L1I WRITEBACK ACCESS:          0  HIT:          0  MISS:          0
L1I PREFETCH  REQUESTED:    7387960  ISSUED:    7387960  USEFUL:     989507  USELESS:     856643
L1I AVERAGE MISS LATENCY: 6.20406 cycles
L2C TOTAL     ACCESS:    2110485  HIT:    2086433  MISS:      24052
L2C LOAD      ACCESS:     142441  HIT:     121990  MISS:      20451
L2C RFO       ACCESS:      36244  HIT:      33749  MISS:       2495
L2C PREFETCH  ACCESS:    1874520  HIT:    1873512  MISS:       1008
L2C WRITEBACK ACCESS:      57280  HIT:      57182  MISS:         98
L2C PREFETCH  REQUESTED:          0  ISSUED:          0  USEFUL:        568  USELESS:        383
L2C AVERAGE MISS LATENCY: 154.428 cycles
LLC TOTAL     ACCESS:      41660  HIT:      23035  MISS:      18625
LLC LOAD      ACCESS:      20451  HIT:       3798  MISS:      16653
LLC RFO       ACCESS:       2495  HIT:        861  MISS:       1634
LLC PREFETCH  ACCESS:       1008  HIT:        843  MISS:        165
LLC WRITEBACK ACCESS:      17706  HIT:      17533  MISS:        173
LLC PREFETCH  REQUESTED:          0  ISSUED:          0  USEFUL:         77  USELESS:        853
LLC AVERAGE MISS LATENCY: 185.277 cycles

DRAM Statistics
 CHANNEL 0
 RQ ROW_BUFFER_HIT:        833  ROW_BUFFER_MISS:      17619
 DBUS_CONGESTED:       3133
 WQ ROW_BUFFER_HIT:        507  ROW_BUFFER_MISS:       7819  FULL:          0

 AVG_CONGESTED_CYCLE: 6

CPU 0 Branch Prediction Accuracy: 84.7272% MPKI: 26.0664 Average ROB Occupancy at Mispredict: 53.3871
Branch type MPKI
BRANCH_DIRECT_JUMP: 0.00816
BRANCH_INDIRECT: 0.00028
BRANCH_CONDITIONAL: 26.0503
BRANCH_DIRECT_CALL: 0.0074
BRANCH_INDIRECT_CALL: 0.00032
BRANCH_RETURN: 2e-05

