
VirtualMemory physical capacity: 8589934592 num_ppages: 2097152
VirtualMemory page size: 4096 log2_page_size: 12
VirtualMemory initalizing ppage free list ... done
VirtualMemory shuffling ppage free list ... done


*** ChampSim Multicore Out-of-Order Simulator ***

Warmup Instructions: 50000000
Simulation Instructions: 50000000
Number of CPUs: 1
LLC sets: 2048
LLC ways: 16
Off-chip DRAM Size: 4096 MB Channels: 1 Width: 64-bit Data Rate: 3200 MT/s

CPU 0 runs ipc1_public/spec_perlbench_001.champsimtrace.xz
CPU 0 Bimodal branch predictor
Basic BTB sets: 1024 ways: 8 indirect buffer size: 4096 RAS size: 64
Heartbeat CPU 0 instructions: 10000002 cycles: 2539279 heartbeat IPC: 3.93813 cumulative IPC: 3.93813 (Simulation time: 0 hr 19 min 46 sec) 
Heartbeat CPU 0 instructions: 20000001 cycles: 5097532 heartbeat IPC: 3.90892 cumulative IPC: 3.92347 (Simulation time: 0 hr 36 min 57 sec) 
Heartbeat CPU 0 instructions: 30000002 cycles: 7670877 heartbeat IPC: 3.88599 cumulative IPC: 3.9109 (Simulation time: 0 hr 53 min 15 sec) 
Heartbeat CPU 0 instructions: 40000001 cycles: 10190820 heartbeat IPC: 3.96834 cumulative IPC: 3.9251 (Simulation time: 1 hr 14 min 28 sec) 
Heartbeat CPU 0 instructions: 50000001 cycles: 12692336 heartbeat IPC: 3.99758 cumulative IPC: 3.93939 (Simulation time: 1 hr 35 min 5 sec) 

Warmup complete CPU 0 instructions: 50000001 cycles: 12692336 (Simulation time: 1 hr 35 min 5 sec) 

Heartbeat CPU 0 instructions: 60000001 cycles: 19989449 heartbeat IPC: 1.3704 cumulative IPC: 1.3704 (Simulation time: 1 hr 49 min 59 sec) 
Heartbeat CPU 0 instructions: 70000001 cycles: 27139699 heartbeat IPC: 1.39855 cumulative IPC: 1.38434 (Simulation time: 2 hr 8 min 2 sec) 
Heartbeat CPU 0 instructions: 80000000 cycles: 34391721 heartbeat IPC: 1.37893 cumulative IPC: 1.38253 (Simulation time: 2 hr 26 min 39 sec) 
Heartbeat CPU 0 instructions: 90000000 cycles: 38762454 heartbeat IPC: 2.28795 cumulative IPC: 1.53432 (Simulation time: 2 hr 40 min 16 sec) 
Heartbeat CPU 0 instructions: 100000003 cycles: 43196381 heartbeat IPC: 2.25534 cumulative IPC: 1.63913 (Simulation time: 2 hr 52 min 14 sec) 
Finished CPU 0 instructions: 50000002 cycles: 30504045 cumulative IPC: 1.63913 (Simulation time: 2 hr 52 min 14 sec) 

ChampSim completed all CPUs

Region of Interest Statistics

CPU 0 cumulative IPC: 1.63913 instructions: 50000002 cycles: 30504045
L1D TOTAL     ACCESS:   13659831  HIT:   13415835  MISS:     243996
L1D LOAD      ACCESS:    7017073  HIT:    6792200  MISS:     224873
L1D RFO       ACCESS:    6642758  HIT:    6623635  MISS:      19123
L1D PREFETCH  ACCESS:          0  HIT:          0  MISS:          0
L1D WRITEBACK ACCESS:          0  HIT:          0  MISS:          0
L1D PREFETCH  REQUESTED:          0  ISSUED:          0  USEFUL:          0  USELESS:          0
L1D AVERAGE MISS LATENCY: 66.2361 cycles
L1I TOTAL     ACCESS:    2633167  HIT:    2348941  MISS:     284226
L1I LOAD      ACCESS:    2633167  HIT:    2348941  MISS:     284226
L1I RFO       ACCESS:          0  HIT:          0  MISS:          0
L1I PREFETCH  ACCESS:          0  HIT:          0  MISS:          0
L1I WRITEBACK ACCESS:          0  HIT:          0  MISS:          0
L1I PREFETCH  REQUESTED:          0  ISSUED:          0  USEFUL:          0  USELESS:          0
L1I AVERAGE MISS LATENCY: 9.96801 cycles
L2C TOTAL     ACCESS:     592755  HIT:     476749  MISS:     116006
L2C LOAD      ACCESS:     509099  HIT:     399470  MISS:     109629
L2C RFO       ACCESS:      19123  HIT:      13040  MISS:       6083
L2C PREFETCH  ACCESS:          0  HIT:          0  MISS:          0
L2C WRITEBACK ACCESS:      64533  HIT:      64239  MISS:        294
L2C PREFETCH  REQUESTED:          0  ISSUED:          0  USEFUL:          0  USELESS:          0
L2C AVERAGE MISS LATENCY: 134.297 cycles
LLC TOTAL     ACCESS:     139160  HIT:      54957  MISS:      84203
LLC LOAD      ACCESS:     109629  HIT:      29047  MISS:      80582
LLC RFO       ACCESS:       6083  HIT:       2646  MISS:       3437
LLC PREFETCH  ACCESS:          0  HIT:          0  MISS:          0
LLC WRITEBACK ACCESS:      23448  HIT:      23264  MISS:        184
LLC PREFETCH  REQUESTED:          0  ISSUED:          0  USEFUL:          0  USELESS:          0
LLC AVERAGE MISS LATENCY: 169.904 cycles

DRAM Statistics
 CHANNEL 0
 RQ ROW_BUFFER_HIT:       6117  ROW_BUFFER_MISS:      77897
 DBUS_CONGESTED:      23096
 WQ ROW_BUFFER_HIT:       3787  ROW_BUFFER_MISS:      11826  FULL:          0

 AVG_CONGESTED_CYCLE: 6

CPU 0 Branch Prediction Accuracy: 94.5549% MPKI: 10.7221 Average ROB Occupancy at Mispredict: 145.925
Branch type MPKI
BRANCH_DIRECT_JUMP: 0.01088
BRANCH_INDIRECT: 0.50598
BRANCH_CONDITIONAL: 9.5984
BRANCH_DIRECT_CALL: 0.01264
BRANCH_INDIRECT_CALL: 0.59422
BRANCH_RETURN: 0

