
VirtualMemory physical capacity: 8589934592 num_ppages: 2097152
VirtualMemory page size: 4096 log2_page_size: 12
VirtualMemory initalizing ppage free list ... done
VirtualMemory shuffling ppage free list ... done


*** ChampSim Multicore Out-of-Order Simulator ***

Warmup Instructions: 50000000
Simulation Instructions: 50000000
Number of CPUs: 1
LLC sets: 2048
LLC ways: 16
Off-chip DRAM Size: 4096 MB Channels: 1 Width: 64-bit Data Rate: 3200 MT/s

CPU 0 runs ipc1_public/spec_gobmk_001.champsimtrace.xz
CPU 0 Bimodal branch predictor
Basic BTB sets: 1024 ways: 8 indirect buffer size: 4096 RAS size: 64
LHT KB: 31.56
SCC KB: 1.56
Total KB: 33.12
Heartbeat CPU 0 instructions: 10000000 cycles: 2553677 heartbeat IPC: 3.91592 cumulative IPC: 3.91592 (Simulation time: 0 hr 14 min 45 sec) 
Heartbeat CPU 0 instructions: 20000001 cycles: 5108977 heartbeat IPC: 3.91344 cumulative IPC: 3.91468 (Simulation time: 0 hr 28 min 32 sec) 
Heartbeat CPU 0 instructions: 30000000 cycles: 7668039 heartbeat IPC: 3.90768 cumulative IPC: 3.91234 (Simulation time: 0 hr 41 min 52 sec) 
Heartbeat CPU 0 instructions: 40000001 cycles: 10221047 heartbeat IPC: 3.91695 cumulative IPC: 3.91349 (Simulation time: 0 hr 56 min 21 sec) 
Heartbeat CPU 0 instructions: 50000000 cycles: 12773292 heartbeat IPC: 3.91812 cumulative IPC: 3.91442 (Simulation time: 1 hr 11 min 14 sec) 

Warmup complete CPU 0 instructions: 50000005 cycles: 12773293 (Simulation time: 1 hr 11 min 14 sec) 

Heartbeat CPU 0 instructions: 60000003 cycles: 20679936 heartbeat IPC: 1.26476 cumulative IPC: 1.26476 (Simulation time: 1 hr 23 min 40 sec) 
Heartbeat CPU 0 instructions: 70000003 cycles: 28558158 heartbeat IPC: 1.26932 cumulative IPC: 1.26704 (Simulation time: 1 hr 34 min 44 sec) 
Heartbeat CPU 0 instructions: 80000004 cycles: 36205020 heartbeat IPC: 1.30773 cumulative IPC: 1.28032 (Simulation time: 1 hr 44 min 19 sec) 
Heartbeat CPU 0 instructions: 90000001 cycles: 43475809 heartbeat IPC: 1.37537 cumulative IPC: 1.30282 (Simulation time: 1 hr 53 min 54 sec) 
Heartbeat CPU 0 instructions: 100000000 cycles: 51280445 heartbeat IPC: 1.28129 cumulative IPC: 1.29846 (Simulation time: 2 hr 4 min 14 sec) 
Finished CPU 0 instructions: 50000001 cycles: 38507159 cumulative IPC: 1.29846 (Simulation time: 2 hr 4 min 14 sec) 

ChampSim completed all CPUs

Region of Interest Statistics

CPU 0 cumulative IPC: 1.29846 instructions: 50000001 cycles: 38507159
L1D TOTAL     ACCESS:   11537768  HIT:   11301126  MISS:     236642
L1D LOAD      ACCESS:    7723575  HIT:    7582497  MISS:     141078
L1D RFO       ACCESS:    3814193  HIT:    3718629  MISS:      95564
L1D PREFETCH  ACCESS:          0  HIT:          0  MISS:          0
L1D WRITEBACK ACCESS:          0  HIT:          0  MISS:          0
L1D PREFETCH  REQUESTED:          0  ISSUED:          0  USEFUL:          0  USELESS:          0
L1D AVERAGE MISS LATENCY: 21.003 cycles
L1I TOTAL     ACCESS:   18434210  HIT:   15846399  MISS:    2587811
L1I LOAD      ACCESS:    3327526  HIT:    3000923  MISS:     326603
L1I RFO       ACCESS:          0  HIT:          0  MISS:          0
L1I PREFETCH  ACCESS:   15106684  HIT:   12845476  MISS:    2261208
L1I WRITEBACK ACCESS:          0  HIT:          0  MISS:          0
L1I PREFETCH  REQUESTED:   16414669  ISSUED:   16414669  USEFUL:          0  USELESS:          0
L1I AVERAGE MISS LATENCY: 6.40589 cycles
L2C TOTAL     ACCESS:    2941641  HIT:    2850879  MISS:      90762
L2C LOAD      ACCESS:     435836  HIT:     387692  MISS:      48144
L2C RFO       ACCESS:      95564  HIT:      62520  MISS:      33044
L2C PREFETCH  ACCESS:    2293053  HIT:    2283736  MISS:       9317
L2C WRITEBACK ACCESS:     117188  HIT:     116931  MISS:        257
L2C PREFETCH  REQUESTED:          0  ISSUED:          0  USEFUL:       7728  USELESS:       1793
L2C AVERAGE MISS LATENCY: 39.7986 cycles
LLC TOTAL     ACCESS:     133027  HIT:     118133  MISS:      14894
LLC LOAD      ACCESS:      48144  HIT:      35810  MISS:      12334
LLC RFO       ACCESS:      33044  HIT:      31033  MISS:       2011
LLC PREFETCH  ACCESS:       9317  HIT:       8820  MISS:        497
LLC WRITEBACK ACCESS:      42522  HIT:      42470  MISS:         52
LLC PREFETCH  REQUESTED:          0  ISSUED:          0  USEFUL:        329  USELESS:       1558
LLC AVERAGE MISS LATENCY: 175.68 cycles

DRAM Statistics
 CHANNEL 0
 RQ ROW_BUFFER_HIT:        739  ROW_BUFFER_MISS:      14088
 DBUS_CONGESTED:       3171
 WQ ROW_BUFFER_HIT:        617  ROW_BUFFER_MISS:       7484  FULL:          0

 AVG_CONGESTED_CYCLE: 6

CPU 0 Branch Prediction Accuracy: 86.7531% MPKI: 24.6506 Average ROB Occupancy at Mispredict: 77.4281
Branch type MPKI
BRANCH_DIRECT_JUMP: 0.00144
BRANCH_INDIRECT: 0
BRANCH_CONDITIONAL: 24.5737
BRANCH_DIRECT_CALL: 0.00218
BRANCH_INDIRECT_CALL: 0.0732
BRANCH_RETURN: 0.0001

