
VirtualMemory physical capacity: 8589934592 num_ppages: 2097152
VirtualMemory page size: 4096 log2_page_size: 12
VirtualMemory initalizing ppage free list ... done
VirtualMemory shuffling ppage free list ... done


*** ChampSim Multicore Out-of-Order Simulator ***

Warmup Instructions: 50000000
Simulation Instructions: 50000000
Number of CPUs: 1
LLC sets: 2048
LLC ways: 16
Off-chip DRAM Size: 4096 MB Channels: 1 Width: 64-bit Data Rate: 3200 MT/s

CPU 0 runs ipc1_public/spec_gcc_003.champsimtrace.xz
CPU 0 Bimodal branch predictor
Basic BTB sets: 1024 ways: 8 indirect buffer size: 4096 RAS size: 64
CPU 0 L1I next line prefetcher
Heartbeat CPU 0 instructions: 10000004 cycles: 3668130 heartbeat IPC: 2.72619 cumulative IPC: 2.72619 (Simulation time: 0 hr 27 min 40 sec) 
Heartbeat CPU 0 instructions: 20000003 cycles: 7463094 heartbeat IPC: 2.63507 cumulative IPC: 2.67985 (Simulation time: 0 hr 57 min 14 sec) 
Heartbeat CPU 0 instructions: 30000002 cycles: 11260699 heartbeat IPC: 2.63324 cumulative IPC: 2.66413 (Simulation time: 1 hr 18 min 36 sec) 
Heartbeat CPU 0 instructions: 40000000 cycles: 15070621 heartbeat IPC: 2.62473 cumulative IPC: 2.65417 (Simulation time: 1 hr 35 min 51 sec) 
Heartbeat CPU 0 instructions: 50000001 cycles: 18677747 heartbeat IPC: 2.77229 cumulative IPC: 2.67698 (Simulation time: 1 hr 54 min 15 sec) 

Warmup complete CPU 0 instructions: 50000001 cycles: 18677747 (Simulation time: 1 hr 54 min 15 sec) 

Heartbeat CPU 0 instructions: 60000000 cycles: 55438794 heartbeat IPC: 0.272027 cumulative IPC: 0.272027 (Simulation time: 2 hr 20 min 21 sec) 
Heartbeat CPU 0 instructions: 70000002 cycles: 93011411 heartbeat IPC: 0.266151 cumulative IPC: 0.269057 (Simulation time: 2 hr 33 min 24 sec) 
Heartbeat CPU 0 instructions: 80000003 cycles: 132189248 heartbeat IPC: 0.255246 cumulative IPC: 0.26429 (Simulation time: 2 hr 40 min 8 sec) 
Heartbeat CPU 0 instructions: 90000004 cycles: 165135020 heartbeat IPC: 0.303529 cumulative IPC: 0.273117 (Simulation time: 2 hr 44 min 2 sec) 
Heartbeat CPU 0 instructions: 100000001 cycles: 207135820 heartbeat IPC: 0.238091 cumulative IPC: 0.265311 (Simulation time: 2 hr 49 min 3 sec) 
Finished CPU 0 instructions: 50000000 cycles: 188458073 cumulative IPC: 0.265311 (Simulation time: 2 hr 49 min 3 sec) 

ChampSim completed all CPUs

Region of Interest Statistics

CPU 0 cumulative IPC: 0.265311 instructions: 50000000 cycles: 188458073
L1D TOTAL     ACCESS:   13480330  HIT:    7929521  MISS:    5550809
L1D LOAD      ACCESS:    5083948  HIT:    4588206  MISS:     495742
L1D RFO       ACCESS:    8396382  HIT:    3341315  MISS:    5055067
L1D PREFETCH  ACCESS:          0  HIT:          0  MISS:          0
L1D WRITEBACK ACCESS:          0  HIT:          0  MISS:          0
L1D PREFETCH  REQUESTED:          0  ISSUED:          0  USEFUL:          0  USELESS:          0
L1D AVERAGE MISS LATENCY: 443.832 cycles
L1I TOTAL     ACCESS:    4704345  HIT:    3432567  MISS:    1271778
L1I LOAD      ACCESS:    2698746  HIT:    2494002  MISS:     204744
L1I RFO       ACCESS:          0  HIT:          0  MISS:          0
L1I PREFETCH  ACCESS:    2005599  HIT:     938565  MISS:    1067034
L1I WRITEBACK ACCESS:          0  HIT:          0  MISS:          0
L1I PREFETCH  REQUESTED:    2146719  ISSUED:    2142394  USEFUL:     664596  USELESS:     402369
L1I AVERAGE MISS LATENCY: 39.4236 cycles
L2C TOTAL     ACCESS:   11963081  HIT:    5996274  MISS:    5966807
L2C LOAD      ACCESS:     647653  HIT:     117918  MISS:     529735
L2C RFO       ACCESS:    5055058  HIT:       2965  MISS:    5052093
L2C PREFETCH  ACCESS:    1119866  HIT:     735351  MISS:     384515
L2C WRITEBACK ACCESS:    5140504  HIT:    5140040  MISS:        464
L2C PREFETCH  REQUESTED:          0  ISSUED:          0  USEFUL:     229833  USELESS:     155130
L2C AVERAGE MISS LATENCY: 415.984 cycles
LLC TOTAL     ACCESS:   11097967  HIT:    7358724  MISS:    3739243
LLC LOAD      ACCESS:     529732  HIT:     425260  MISS:     104472
LLC RFO       ACCESS:    5052093  HIT:    1541322  MISS:    3510771
LLC PREFETCH  ACCESS:     384515  HIT:     260515  MISS:     124000
LLC WRITEBACK ACCESS:    5131627  HIT:    5131627  MISS:          0
LLC PREFETCH  REQUESTED:          0  ISSUED:          0  USEFUL:      28902  USELESS:      94749
LLC AVERAGE MISS LATENCY: 646.232 cycles
I-Shadow cache 408 bytes
Touched + WorthPF tables 6144 bytes 
MMA filter 174 bytes 
FNL filter 272 bytes 
TOTAL PREFETCHER STORAGE SIZE: 25174 bytes
CPU 0 L1I next line prefetcher final stats

DRAM Statistics
 CHANNEL 0
 RQ ROW_BUFFER_HIT:     890615  ROW_BUFFER_MISS:    2834319
 DBUS_CONGESTED:    5713341
 WQ ROW_BUFFER_HIT:     803239  ROW_BUFFER_MISS:    2730071  FULL:      25251

 AVG_CONGESTED_CYCLE: 6

CPU 0 Branch Prediction Accuracy: 96.1755% MPKI: 8.94482 Average ROB Occupancy at Mispredict: 100.758
Branch type MPKI
BRANCH_DIRECT_JUMP: 0.00144
BRANCH_INDIRECT: 0.20978
BRANCH_CONDITIONAL: 8.67322
BRANCH_DIRECT_CALL: 0.00646
BRANCH_INDIRECT_CALL: 0.05392
BRANCH_RETURN: 0

