
VirtualMemory physical capacity: 8589934592 num_ppages: 2097152
VirtualMemory page size: 4096 log2_page_size: 12
VirtualMemory initalizing ppage free list ... done
VirtualMemory shuffling ppage free list ... done


*** ChampSim Multicore Out-of-Order Simulator ***

Warmup Instructions: 50000000
Simulation Instructions: 50000000
Number of CPUs: 1
LLC sets: 2048
LLC ways: 16
Off-chip DRAM Size: 4096 MB Channels: 1 Width: 64-bit Data Rate: 3200 MT/s

CPU 0 runs ipc1_public/spec_x264_001.champsimtrace.xz
CPU 0 Bimodal branch predictor
Basic BTB sets: 1024 ways: 8 indirect buffer size: 4096 RAS size: 64
Heartbeat CPU 0 instructions: 10000001 cycles: 2520086 heartbeat IPC: 3.96812 cumulative IPC: 3.96812 (Simulation time: 0 hr 7 min 58 sec) 
Heartbeat CPU 0 instructions: 20000002 cycles: 5037889 heartbeat IPC: 3.97172 cumulative IPC: 3.96992 (Simulation time: 0 hr 20 min 22 sec) 
Heartbeat CPU 0 instructions: 30000002 cycles: 7554262 heartbeat IPC: 3.97397 cumulative IPC: 3.97127 (Simulation time: 0 hr 30 min 44 sec) 
Heartbeat CPU 0 instructions: 40000004 cycles: 10070508 heartbeat IPC: 3.97417 cumulative IPC: 3.97199 (Simulation time: 0 hr 42 min 20 sec) 
Heartbeat CPU 0 instructions: 50000000 cycles: 12588457 heartbeat IPC: 3.97148 cumulative IPC: 3.97189 (Simulation time: 0 hr 56 min 20 sec) 

Warmup complete CPU 0 instructions: 50000004 cycles: 12588458 (Simulation time: 0 hr 56 min 20 sec) 

Heartbeat CPU 0 instructions: 60000002 cycles: 16402341 heartbeat IPC: 2.622 cumulative IPC: 2.622 (Simulation time: 1 hr 6 min 30 sec) 
Heartbeat CPU 0 instructions: 70000004 cycles: 20220419 heartbeat IPC: 2.61912 cumulative IPC: 2.62056 (Simulation time: 1 hr 15 min 34 sec) 
Heartbeat CPU 0 instructions: 80000002 cycles: 24095538 heartbeat IPC: 2.58057 cumulative IPC: 2.60709 (Simulation time: 1 hr 27 min 40 sec) 
Heartbeat CPU 0 instructions: 90000000 cycles: 27930497 heartbeat IPC: 2.60759 cumulative IPC: 2.60722 (Simulation time: 1 hr 36 min 19 sec) 
Heartbeat CPU 0 instructions: 100000004 cycles: 31762230 heartbeat IPC: 2.60979 cumulative IPC: 2.60773 (Simulation time: 1 hr 42 min 32 sec) 
Finished CPU 0 instructions: 50000000 cycles: 19173772 cumulative IPC: 2.60773 (Simulation time: 1 hr 42 min 32 sec) 

ChampSim completed all CPUs

Region of Interest Statistics

CPU 0 cumulative IPC: 2.60773 instructions: 50000000 cycles: 19173772
L1D TOTAL     ACCESS:    8566889  HIT:    8498613  MISS:      68276
L1D LOAD      ACCESS:    5671808  HIT:    5624283  MISS:      47525
L1D RFO       ACCESS:    2895081  HIT:    2874330  MISS:      20751
L1D PREFETCH  ACCESS:          0  HIT:          0  MISS:          0
L1D WRITEBACK ACCESS:          0  HIT:          0  MISS:          0
L1D PREFETCH  REQUESTED:          0  ISSUED:          0  USEFUL:          0  USELESS:          0
L1D AVERAGE MISS LATENCY: 90.8589 cycles
L1I TOTAL     ACCESS:     799971  HIT:     376853  MISS:     423118
L1I LOAD      ACCESS:     799971  HIT:     376853  MISS:     423118
L1I RFO       ACCESS:          0  HIT:          0  MISS:          0
L1I PREFETCH  ACCESS:          0  HIT:          0  MISS:          0
L1I WRITEBACK ACCESS:          0  HIT:          0  MISS:          0
L1I PREFETCH  REQUESTED:          0  ISSUED:          0  USEFUL:          0  USELESS:          0
L1I AVERAGE MISS LATENCY: 6.10701 cycles
L2C TOTAL     ACCESS:     517221  HIT:     481931  MISS:      35290
L2C LOAD      ACCESS:     470642  HIT:     448903  MISS:      21739
L2C RFO       ACCESS:      20743  HIT:       7316  MISS:      13427
L2C PREFETCH  ACCESS:          0  HIT:          0  MISS:          0
L2C WRITEBACK ACCESS:      25836  HIT:      25712  MISS:        124
L2C PREFETCH  REQUESTED:          0  ISSUED:          0  USEFUL:          0  USELESS:          0
L2C AVERAGE MISS LATENCY: 163.73 cycles
LLC TOTAL     ACCESS:      48828  HIT:      21157  MISS:      27671
LLC LOAD      ACCESS:      21739  HIT:       7156  MISS:      14583
LLC RFO       ACCESS:      13426  HIT:        416  MISS:      13010
LLC PREFETCH  ACCESS:          0  HIT:          0  MISS:          0
LLC WRITEBACK ACCESS:      13663  HIT:      13585  MISS:         78
LLC PREFETCH  REQUESTED:          0  ISSUED:          0  USEFUL:          0  USELESS:          0
LLC AVERAGE MISS LATENCY: 194.832 cycles

DRAM Statistics
 CHANNEL 0
 RQ ROW_BUFFER_HIT:       2308  ROW_BUFFER_MISS:      25285
 DBUS_CONGESTED:      11535
 WQ ROW_BUFFER_HIT:        876  ROW_BUFFER_MISS:      11338  FULL:          0

 AVG_CONGESTED_CYCLE: 6

CPU 0 Branch Prediction Accuracy: 90.694% MPKI: 5.6986 Average ROB Occupancy at Mispredict: 111.047
Branch type MPKI
BRANCH_DIRECT_JUMP: 0.00034
BRANCH_INDIRECT: 0
BRANCH_CONDITIONAL: 5.6316
BRANCH_DIRECT_CALL: 4e-05
BRANCH_INDIRECT_CALL: 0.06662
BRANCH_RETURN: 0

