
VirtualMemory physical capacity: 8589934592 num_ppages: 2097152
VirtualMemory page size: 4096 log2_page_size: 12
VirtualMemory initalizing ppage free list ... done
VirtualMemory shuffling ppage free list ... done


*** ChampSim Multicore Out-of-Order Simulator ***

Warmup Instructions: 50000000
Simulation Instructions: 50000000
Number of CPUs: 1
LLC sets: 2048
LLC ways: 16
Off-chip DRAM Size: 4096 MB Channels: 1 Width: 64-bit Data Rate: 3200 MT/s

CPU 0 runs ipc1_public/spec_gobmk_002.champsimtrace.xz
CPU 0 Bimodal branch predictor
Basic BTB sets: 1024 ways: 8 indirect buffer size: 4096 RAS size: 64
Heartbeat CPU 0 instructions: 10000003 cycles: 2510817 heartbeat IPC: 3.98277 cumulative IPC: 3.98277 (Simulation time: 0 hr 9 min 18 sec) 
Heartbeat CPU 0 instructions: 20000002 cycles: 5021761 heartbeat IPC: 3.98257 cumulative IPC: 3.98267 (Simulation time: 0 hr 18 min 52 sec) 
Heartbeat CPU 0 instructions: 30000002 cycles: 7537066 heartbeat IPC: 3.97566 cumulative IPC: 3.98033 (Simulation time: 0 hr 29 min 25 sec) 
Heartbeat CPU 0 instructions: 40000001 cycles: 10056110 heartbeat IPC: 3.96976 cumulative IPC: 3.97768 (Simulation time: 0 hr 40 min 50 sec) 
Heartbeat CPU 0 instructions: 50000001 cycles: 12574801 heartbeat IPC: 3.97032 cumulative IPC: 3.97621 (Simulation time: 0 hr 52 min 26 sec) 

Warmup complete CPU 0 instructions: 50000001 cycles: 12574801 (Simulation time: 0 hr 52 min 26 sec) 

Heartbeat CPU 0 instructions: 60000003 cycles: 20262039 heartbeat IPC: 1.30086 cumulative IPC: 1.30086 (Simulation time: 1 hr 2 min 46 sec) 
Heartbeat CPU 0 instructions: 70000000 cycles: 27938031 heartbeat IPC: 1.30276 cumulative IPC: 1.30181 (Simulation time: 1 hr 12 min 43 sec) 
Heartbeat CPU 0 instructions: 80000003 cycles: 35535245 heartbeat IPC: 1.31627 cumulative IPC: 1.3066 (Simulation time: 1 hr 22 min 4 sec) 
Heartbeat CPU 0 instructions: 90000002 cycles: 42761418 heartbeat IPC: 1.38386 cumulative IPC: 1.32509 (Simulation time: 1 hr 29 min 11 sec) 
Heartbeat CPU 0 instructions: 100000004 cycles: 50295196 heartbeat IPC: 1.32736 cumulative IPC: 1.32554 (Simulation time: 1 hr 33 min 52 sec) 
Finished CPU 0 instructions: 50000003 cycles: 37720395 cumulative IPC: 1.32554 (Simulation time: 1 hr 33 min 52 sec) 

ChampSim completed all CPUs

Region of Interest Statistics

CPU 0 cumulative IPC: 1.32554 instructions: 50000003 cycles: 37720395
L1D TOTAL     ACCESS:   11662177  HIT:   11589034  MISS:      73143
L1D LOAD      ACCESS:    7193326  HIT:    7156426  MISS:      36900
L1D RFO       ACCESS:    4468851  HIT:    4432608  MISS:      36243
L1D PREFETCH  ACCESS:          0  HIT:          0  MISS:          0
L1D WRITEBACK ACCESS:          0  HIT:          0  MISS:          0
L1D PREFETCH  REQUESTED:          0  ISSUED:          0  USEFUL:          0  USELESS:          0
L1D AVERAGE MISS LATENCY: 53.716 cycles
L1I TOTAL     ACCESS:   11788391  HIT:    9808473  MISS:    1979918
L1I LOAD      ACCESS:    4712892  HIT:    4578170  MISS:     134722
L1I RFO       ACCESS:          0  HIT:          0  MISS:          0
L1I PREFETCH  ACCESS:    7075499  HIT:    5230303  MISS:    1845196
L1I WRITEBACK ACCESS:          0  HIT:          0  MISS:          0
L1I PREFETCH  REQUESTED:    7426073  ISSUED:    7426073  USEFUL:     989411  USELESS:     855778
L1I AVERAGE MISS LATENCY: 6.20781 cycles
L2C TOTAL     ACCESS:    2110342  HIT:    2086342  MISS:      24000
L2C LOAD      ACCESS:     143806  HIT:     123416  MISS:      20390
L2C RFO       ACCESS:      36243  HIT:      33785  MISS:       2458
L2C PREFETCH  ACCESS:    1873012  HIT:    1871952  MISS:       1060
L2C WRITEBACK ACCESS:      57281  HIT:      57189  MISS:         92
L2C PREFETCH  REQUESTED:          0  ISSUED:          0  USEFUL:        568  USELESS:        454
L2C AVERAGE MISS LATENCY: 155.218 cycles
LLC TOTAL     ACCESS:      41611  HIT:      23002  MISS:      18609
LLC LOAD      ACCESS:      20390  HIT:       3726  MISS:      16664
LLC RFO       ACCESS:       2458  HIT:        852  MISS:       1606
LLC PREFETCH  ACCESS:       1060  HIT:        885  MISS:        175
LLC WRITEBACK ACCESS:      17703  HIT:      17539  MISS:        164
LLC PREFETCH  REQUESTED:          0  ISSUED:          0  USEFUL:         95  USELESS:        933
LLC AVERAGE MISS LATENCY: 186.05 cycles

DRAM Statistics
 CHANNEL 0
 RQ ROW_BUFFER_HIT:        798  ROW_BUFFER_MISS:      17647
 DBUS_CONGESTED:       3076
 WQ ROW_BUFFER_HIT:        506  ROW_BUFFER_MISS:       7905  FULL:          0

 AVG_CONGESTED_CYCLE: 6

CPU 0 Branch Prediction Accuracy: 84.7272% MPKI: 26.0664 Average ROB Occupancy at Mispredict: 53.4142
Branch type MPKI
BRANCH_DIRECT_JUMP: 0.00816
BRANCH_INDIRECT: 0.00028
BRANCH_CONDITIONAL: 26.0503
BRANCH_DIRECT_CALL: 0.0074
BRANCH_INDIRECT_CALL: 0.00032
BRANCH_RETURN: 2e-05

