
VirtualMemory physical capacity: 8589934592 num_ppages: 2097152
VirtualMemory page size: 4096 log2_page_size: 12
VirtualMemory initalizing ppage free list ... done
VirtualMemory shuffling ppage free list ... done


*** ChampSim Multicore Out-of-Order Simulator ***

Warmup Instructions: 50000000
Simulation Instructions: 50000000
Number of CPUs: 1
LLC sets: 2048
LLC ways: 16
Off-chip DRAM Size: 4096 MB Channels: 1 Width: 64-bit Data Rate: 3200 MT/s

CPU 0 runs ipc1_public/spec_perlbench_001.champsimtrace.xz
CPU 0 Bimodal branch predictor
Basic BTB sets: 1024 ways: 8 indirect buffer size: 4096 RAS size: 64
CPU 0 Temporal Ancestry L1I prefetcher
Heartbeat CPU 0 instructions: 10000001 cycles: 2534908 heartbeat IPC: 3.94492 cumulative IPC: 3.94492 (Simulation time: 0 hr 23 min 50 sec) 
Heartbeat CPU 0 instructions: 20000001 cycles: 5094709 heartbeat IPC: 3.90655 cumulative IPC: 3.92564 (Simulation time: 0 hr 47 min 31 sec) 
Heartbeat CPU 0 instructions: 30000000 cycles: 7671784 heartbeat IPC: 3.88037 cumulative IPC: 3.91043 (Simulation time: 1 hr 7 min 51 sec) 
Heartbeat CPU 0 instructions: 40000003 cycles: 10189574 heartbeat IPC: 3.97174 cumulative IPC: 3.92558 (Simulation time: 1 hr 31 min 45 sec) 
Heartbeat CPU 0 instructions: 50000001 cycles: 12690603 heartbeat IPC: 3.99835 cumulative IPC: 3.93992 (Simulation time: 1 hr 53 min 19 sec) 

Warmup complete CPU 0 instructions: 50000001 cycles: 12690603 (Simulation time: 1 hr 53 min 19 sec) 

Heartbeat CPU 0 instructions: 60000001 cycles: 19753359 heartbeat IPC: 1.41588 cumulative IPC: 1.41588 (Simulation time: 2 hr 11 min 14 sec) 
Heartbeat CPU 0 instructions: 70000001 cycles: 26661399 heartbeat IPC: 1.44759 cumulative IPC: 1.43156 (Simulation time: 2 hr 22 min 31 sec) 
Heartbeat CPU 0 instructions: 80000000 cycles: 33796808 heartbeat IPC: 1.40146 cumulative IPC: 1.42138 (Simulation time: 2 hr 32 min 59 sec) 
Heartbeat CPU 0 instructions: 90000000 cycles: 38166400 heartbeat IPC: 2.28854 cumulative IPC: 1.57012 (Simulation time: 2 hr 40 min 18 sec) 
Heartbeat CPU 0 instructions: 100000003 cycles: 42596816 heartbeat IPC: 2.25713 cumulative IPC: 1.67189 (Simulation time: 2 hr 45 min 22 sec) 
Finished CPU 0 instructions: 50000002 cycles: 29906213 cumulative IPC: 1.67189 (Simulation time: 2 hr 45 min 22 sec) 

ChampSim completed all CPUs

Region of Interest Statistics

CPU 0 cumulative IPC: 1.67189 instructions: 50000002 cycles: 29906213
L1D TOTAL     ACCESS:   13638492  HIT:   13394498  MISS:     243994
L1D LOAD      ACCESS:    6996371  HIT:    6771479  MISS:     224892
L1D RFO       ACCESS:    6642121  HIT:    6623019  MISS:      19102
L1D PREFETCH  ACCESS:          0  HIT:          0  MISS:          0
L1D WRITEBACK ACCESS:          0  HIT:          0  MISS:          0
L1D PREFETCH  REQUESTED:          0  ISSUED:          0  USEFUL:          0  USELESS:          0
L1D AVERAGE MISS LATENCY: 66.6654 cycles
L1I TOTAL     ACCESS:    6959994  HIT:    2869083  MISS:    4090911
L1I LOAD      ACCESS:    2654371  HIT:    2494073  MISS:     160298
L1I RFO       ACCESS:          0  HIT:          0  MISS:          0
L1I PREFETCH  ACCESS:    4305623  HIT:     375010  MISS:    3930613
L1I WRITEBACK ACCESS:          0  HIT:          0  MISS:          0
L1I PREFETCH  REQUESTED:    6255397  ISSUED:    6144142  USEFUL:    1021445  USELESS:    2909124
L1I AVERAGE MISS LATENCY: 7.46746 cycles
L2C TOTAL     ACCESS:    4399416  HIT:    4273331  MISS:     126085
L2C LOAD      ACCESS:     338100  HIT:     234283  MISS:     103817
L2C RFO       ACCESS:      19102  HIT:      12630  MISS:       6472
L2C PREFETCH  ACCESS:    3977703  HIT:    3962413  MISS:      15290
L2C WRITEBACK ACCESS:      64511  HIT:      64005  MISS:        506
L2C PREFETCH  REQUESTED:          0  ISSUED:          0  USEFUL:      11246  USELESS:       3854
L2C AVERAGE MISS LATENCY: 126.538 cycles
LLC TOTAL     ACCESS:     150433  HIT:      65449  MISS:      84984
LLC LOAD      ACCESS:     103817  HIT:      26784  MISS:      77033
LLC RFO       ACCESS:       6472  HIT:       3034  MISS:       3438
LLC PREFETCH  ACCESS:      15290  HIT:      10937  MISS:       4353
LLC WRITEBACK ACCESS:      24854  HIT:      24694  MISS:        160
LLC PREFETCH  REQUESTED:          0  ISSUED:          0  USEFUL:       2340  USELESS:       1904
LLC AVERAGE MISS LATENCY: 171.481 cycles

DRAM Statistics
 CHANNEL 0
 RQ ROW_BUFFER_HIT:       6201  ROW_BUFFER_MISS:      78618
 DBUS_CONGESTED:      23902
 WQ ROW_BUFFER_HIT:       3810  ROW_BUFFER_MISS:      11883  FULL:          0

 AVG_CONGESTED_CYCLE: 6

CPU 0 Branch Prediction Accuracy: 94.5549% MPKI: 10.7221 Average ROB Occupancy at Mispredict: 148.731
Branch type MPKI
BRANCH_DIRECT_JUMP: 0.01088
BRANCH_INDIRECT: 0.50598
BRANCH_CONDITIONAL: 9.5984
BRANCH_DIRECT_CALL: 0.01264
BRANCH_INDIRECT_CALL: 0.59422
BRANCH_RETURN: 0

